/*---------------------------------------------------------------------------*\
  =========                 |
  \\      /  F ield         | OpenFOAM: The Open Source CFD Toolbox
   \\    /   O peration     | Website:  https://openfoam.org
    \\  /    A nd           | Version:  7
     \\/     M anipulation  |
\*---------------------------------------------------------------------------*/
Build  : 7
Exec   : icoFoam
Date   : Feb 21 2024
Time   : 17:17:19
Host   : "c204-007.frontera.tacc.utexas.edu"
PID    : 25155
I/O    : uncollated
Case   : /work2/09042/mihiro10/frontera/COE-347-SP24/mainclassrepo/OpenFOAM/v7/cavity/cavity_160x160_re500
nProcs : 1
sigFpe : Enabling floating point exception trapping (FOAM_SIGFPE).
fileModificationChecking : Monitoring run-time modified files using timeStampMaster (fileModificationSkew 10)
allowSystemOperations : Allowing user-supplied system call operations

// * * * * * * * * * * * * * * * * * * * * * * * * * * * * * * * * * * * * * //
Create time

Create mesh for time = 0

Reading transportProperties

Reading field p

Reading field U

Reading/calculating face flux field phi


Starting time loop

Time = 0.000625

Courant Number mean: 0 max: 0
smoothSolver:  Solving for Ux, Initial residual = 1, Final residual = 2.6008e-06, No Iterations 6
smoothSolver:  Solving for Uy, Initial residual = 0, Final residual = 0, No Iterations 0
DICPCG:  Solving for p, Initial residual = 1, Final residual = 0.0421841, No Iterations 201
time step continuity errors : sum local = 1.39778e-06, global = -9.0447e-21, cumulative = -9.0447e-21
DICPCG:  Solving for p, Initial residual = 0.30974, Final residual = 9.42248e-07, No Iterations 280
time step continuity errors : sum local = 6.29662e-11, global = 5.00078e-21, cumulative = -4.04392e-21
ExecutionTime = 0.38 s  ClockTime = 0 s

Time = 0.00125

Courant Number mean: 0.00653793 max: 0.333855
smoothSolver:  Solving for Ux, Initial residual = 0.274527, Final residual = 1.84941e-06, No Iterations 6
smoothSolver:  Solving for Uy, Initial residual = 0.327242, Final residual = 3.68808e-06, No Iterations 6
DICPCG:  Solving for p, Initial residual = 0.205577, Final residual = 0.0100445, No Iterations 192
time step continuity errors : sum local = 6.57657e-07, global = 1.4165e-20, cumulative = 1.01211e-20
DICPCG:  Solving for p, Initial residual = 0.0918732, Final residual = 9.14903e-07, No Iterations 270
time step continuity errors : sum local = 6.4023e-11, global = -2.91361e-21, cumulative = 7.20746e-21
ExecutionTime = 0.59 s  ClockTime = 1 s

Time = 0.001875

Courant Number mean: 0.0111606 max: 0.518394
smoothSolver:  Solving for Ux, Initial residual = 0.139893, Final residual = 6.80358e-06, No Iterations 5
smoothSolver:  Solving for Uy, Initial residual = 0.168797, Final residual = 1.92592e-06, No Iterations 6
DICPCG:  Solving for p, Initial residual = 0.126344, Final residual = 0.0060372, No Iterations 191
time step continuity errors : sum local = 4.45294e-07, global = 2.53503e-20, cumulative = 3.25577e-20
DICPCG:  Solving for p, Initial residual = 0.0558617, Final residual = 9.86512e-07, No Iterations 253
time step continuity errors : sum local = 7.66095e-11, global = -3.44762e-21, cumulative = 2.91101e-20
ExecutionTime = 0.8 s  ClockTime = 1 s

Time = 0.0025

Courant Number mean: 0.0146815 max: 0.625407
smoothSolver:  Solving for Ux, Initial residual = 0.0879915, Final residual = 4.50813e-06, No Iterations 5
smoothSolver:  Solving for Uy, Initial residual = 0.106213, Final residual = 8.11324e-06, No Iterations 5
DICPCG:  Solving for p, Initial residual = 0.0851093, Final residual = 0.00352405, No Iterations 191
time step continuity errors : sum local = 2.85183e-07, global = -1.12956e-20, cumulative = 1.78145e-20
DICPCG:  Solving for p, Initial residual = 0.0375112, Final residual = 9.33477e-07, No Iterations 253
time step continuity errors : sum local = 7.86445e-11, global = -1.97411e-20, cumulative = -1.92657e-21
ExecutionTime = 1.02 s  ClockTime = 1 s

Time = 0.003125

Courant Number mean: 0.0175242 max: 0.691096
smoothSolver:  Solving for Ux, Initial residual = 0.0625783, Final residual = 3.34382e-06, No Iterations 5
smoothSolver:  Solving for Uy, Initial residual = 0.0751328, Final residual = 5.78454e-06, No Iterations 5
DICPCG:  Solving for p, Initial residual = 0.0595541, Final residual = 0.00288012, No Iterations 98
time step continuity errors : sum local = 2.82454e-07, global = 1.15752e-20, cumulative = 9.64858e-21
DICPCG:  Solving for p, Initial residual = 0.0274787, Final residual = 8.92101e-07, No Iterations 253
time step continuity errors : sum local = 8.0109e-11, global = 3.48722e-20, cumulative = 4.45207e-20
ExecutionTime = 1.19 s  ClockTime = 1 s

Time = 0.00375

Courant Number mean: 0.0199184 max: 0.733909
smoothSolver:  Solving for Ux, Initial residual = 0.0480324, Final residual = 2.65159e-06, No Iterations 5
smoothSolver:  Solving for Uy, Initial residual = 0.057588, Final residual = 4.46005e-06, No Iterations 5
DICPCG:  Solving for p, Initial residual = 0.0447236, Final residual = 0.00216173, No Iterations 95
time step continuity errors : sum local = 1.98402e-07, global = -3.02123e-21, cumulative = 4.14995e-20
DICPCG:  Solving for p, Initial residual = 0.0212276, Final residual = 8.823e-07, No Iterations 252
time step continuity errors : sum local = 8.21045e-11, global = -6.41595e-21, cumulative = 3.50836e-20
ExecutionTime = 1.36 s  ClockTime = 1 s

Time = 0.004375

Courant Number mean: 0.0220218 max: 0.763496
smoothSolver:  Solving for Ux, Initial residual = 0.0390237, Final residual = 2.21172e-06, No Iterations 5
smoothSolver:  Solving for Uy, Initial residual = 0.0462836, Final residual = 3.60113e-06, No Iterations 5
DICPCG:  Solving for p, Initial residual = 0.0356002, Final residual = 0.00164919, No Iterations 95
time step continuity errors : sum local = 1.73043e-07, global = -2.68077e-20, cumulative = 8.27588e-21
DICPCG:  Solving for p, Initial residual = 0.0177786, Final residual = 8.9569e-07, No Iterations 251
time step continuity errors : sum local = 8.60527e-11, global = 5.13938e-20, cumulative = 5.96697e-20
ExecutionTime = 1.53 s  ClockTime = 2 s

Time = 0.005

Courant Number mean: 0.0239034 max: 0.785064
smoothSolver:  Solving for Ux, Initial residual = 0.0327731, Final residual = 1.89553e-06, No Iterations 5
smoothSolver:  Solving for Uy, Initial residual = 0.0387956, Final residual = 3.02808e-06, No Iterations 5
DICPCG:  Solving for p, Initial residual = 0.0302201, Final residual = 0.0013861, No Iterations 94
time step continuity errors : sum local = 1.35718e-07, global = -6.44543e-21, cumulative = 5.32243e-20
DICPCG:  Solving for p, Initial residual = 0.0149655, Final residual = 9.69913e-07, No Iterations 249
time step continuity errors : sum local = 9.53548e-11, global = 5.05271e-20, cumulative = 1.03751e-19
ExecutionTime = 1.7 s  ClockTime = 2 s

Time = 0.005625

Courant Number mean: 0.0256114 max: 0.801526
smoothSolver:  Solving for Ux, Initial residual = 0.0283388, Final residual = 1.66535e-06, No Iterations 5
smoothSolver:  Solving for Uy, Initial residual = 0.0332893, Final residual = 2.60433e-06, No Iterations 5
DICPCG:  Solving for p, Initial residual = 0.0262876, Final residual = 0.00114179, No Iterations 94
time step continuity errors : sum local = 1.2335e-07, global = -3.68011e-22, cumulative = 1.03383e-19
DICPCG:  Solving for p, Initial residual = 0.013219, Final residual = 9.56816e-07, No Iterations 248
time step continuity errors : sum local = 9.5921e-11, global = 1.82079e-20, cumulative = 1.21591e-19
ExecutionTime = 1.87 s  ClockTime = 2 s

Time = 0.00625

Courant Number mean: 0.0271847 max: 0.814574
smoothSolver:  Solving for Ux, Initial residual = 0.0249445, Final residual = 1.48523e-06, No Iterations 5
smoothSolver:  Solving for Uy, Initial residual = 0.0292357, Final residual = 2.29054e-06, No Iterations 5
DICPCG:  Solving for p, Initial residual = 0.0235425, Final residual = 0.00104534, No Iterations 93
time step continuity errors : sum local = 1.07019e-07, global = -3.33775e-20, cumulative = 8.82138e-20
DICPCG:  Solving for p, Initial residual = 0.0118728, Final residual = 9.13305e-07, No Iterations 247
time step continuity errors : sum local = 9.2911e-11, global = 6.24738e-21, cumulative = 9.44612e-20
ExecutionTime = 2.05 s  ClockTime = 2 s

Time = 0.006875

Courant Number mean: 0.0286574 max: 0.825236
smoothSolver:  Solving for Ux, Initial residual = 0.0223056, Final residual = 9.17098e-06, No Iterations 4
smoothSolver:  Solving for Uy, Initial residual = 0.0260119, Final residual = 2.04018e-06, No Iterations 5
DICPCG:  Solving for p, Initial residual = 0.021278, Final residual = 0.000905323, No Iterations 93
time step continuity errors : sum local = 9.8931e-08, global = 2.71429e-20, cumulative = 1.21604e-19
DICPCG:  Solving for p, Initial residual = 0.0109149, Final residual = 9.73036e-07, No Iterations 246
time step continuity errors : sum local = 1.002e-10, global = -4.90025e-20, cumulative = 7.26015e-20
ExecutionTime = 2.21 s  ClockTime = 2 s

Time = 0.0075

Courant Number mean: 0.03004 max: 0.834163
smoothSolver:  Solving for Ux, Initial residual = 0.0201675, Final residual = 8.36108e-06, No Iterations 4
smoothSolver:  Solving for Uy, Initial residual = 0.0234717, Final residual = 1.84201e-06, No Iterations 5
DICPCG:  Solving for p, Initial residual = 0.0195533, Final residual = 0.000921771, No Iterations 92
time step continuity errors : sum local = 9.70691e-08, global = 5.29596e-20, cumulative = 1.25561e-19
DICPCG:  Solving for p, Initial residual = 0.0101108, Final residual = 8.78221e-07, No Iterations 246
time step continuity errors : sum local = 9.13518e-11, global = -1.73364e-20, cumulative = 1.08225e-19
ExecutionTime = 2.37 s  ClockTime = 2 s

Time = 0.008125

Courant Number mean: 0.0313418 max: 0.841783
smoothSolver:  Solving for Ux, Initial residual = 0.0184166, Final residual = 7.69199e-06, No Iterations 4
smoothSolver:  Solving for Uy, Initial residual = 0.0213566, Final residual = 1.67665e-06, No Iterations 5
DICPCG:  Solving for p, Initial residual = 0.0182032, Final residual = 0.000816381, No Iterations 92
time step continuity errors : sum local = 8.95073e-08, global = -3.09008e-20, cumulative = 7.73239e-20
DICPCG:  Solving for p, Initial residual = 0.00950807, Final residual = 7.94626e-07, No Iterations 246
time step continuity errors : sum local = 8.3396e-11, global = -2.06614e-21, cumulative = 7.52578e-20
ExecutionTime = 2.54 s  ClockTime = 3 s

Time = 0.00875

Courant Number mean: 0.0325719 max: 0.848391
smoothSolver:  Solving for Ux, Initial residual = 0.0169355, Final residual = 7.12005e-06, No Iterations 4
smoothSolver:  Solving for Uy, Initial residual = 0.0196126, Final residual = 1.53983e-06, No Iterations 5
DICPCG:  Solving for p, Initial residual = 0.0170671, Final residual = 0.000840142, No Iterations 91
time step continuity errors : sum local = 9.01614e-08, global = -5.24731e-21, cumulative = 7.00105e-20
DICPCG:  Solving for p, Initial residual = 0.00897481, Final residual = 9.17178e-07, No Iterations 245
time step continuity errors : sum local = 9.69193e-11, global = 2.68012e-20, cumulative = 9.68116e-20
ExecutionTime = 2.7 s  ClockTime = 3 s

Time = 0.009375

Courant Number mean: 0.0337454 max: 0.854194
smoothSolver:  Solving for Ux, Initial residual = 0.0156907, Final residual = 6.63451e-06, No Iterations 4
smoothSolver:  Solving for Uy, Initial residual = 0.0181179, Final residual = 9.41523e-06, No Iterations 4
DICPCG:  Solving for p, Initial residual = 0.016047, Final residual = 0.000756872, No Iterations 91
time step continuity errors : sum local = 8.3314e-08, global = -3.18883e-20, cumulative = 6.49233e-20
DICPCG:  Solving for p, Initial residual = 0.00852797, Final residual = 9.7e-07, No Iterations 244
time step continuity errors : sum local = 1.03175e-10, global = -3.91341e-20, cumulative = 2.57893e-20
ExecutionTime = 2.86 s  ClockTime = 3 s

Time = 0.01

Courant Number mean: 0.0348725 max: 0.859345
smoothSolver:  Solving for Ux, Initial residual = 0.014611, Final residual = 6.20823e-06, No Iterations 4
smoothSolver:  Solving for Uy, Initial residual = 0.0168459, Final residual = 8.75188e-06, No Iterations 4
DICPCG:  Solving for p, Initial residual = 0.0151802, Final residual = 0.000681518, No Iterations 91
time step continuity errors : sum local = 7.4354e-08, global = -1.47724e-20, cumulative = 1.10169e-20
DICPCG:  Solving for p, Initial residual = 0.0080655, Final residual = 8.99519e-07, No Iterations 244
time step continuity errors : sum local = 9.61667e-11, global = 7.29671e-21, cumulative = 1.83136e-20
ExecutionTime = 3.03 s  ClockTime = 3 s

Time = 0.010625

Courant Number mean: 0.0359533 max: 0.863959
smoothSolver:  Solving for Ux, Initial residual = 0.0136699, Final residual = 5.83451e-06, No Iterations 4
smoothSolver:  Solving for Uy, Initial residual = 0.0157329, Final residual = 8.17113e-06, No Iterations 4
DICPCG:  Solving for p, Initial residual = 0.0143988, Final residual = 0.000701399, No Iterations 90
time step continuity errors : sum local = 7.75212e-08, global = 2.55979e-20, cumulative = 4.39115e-20
DICPCG:  Solving for p, Initial residual = 0.00767706, Final residual = 9.19177e-07, No Iterations 243
time step continuity errors : sum local = 9.87863e-11, global = -5.24896e-20, cumulative = -8.57812e-21
ExecutionTime = 3.19 s  ClockTime = 3 s

Time = 0.01125

Courant Number mean: 0.0369904 max: 0.868124
smoothSolver:  Solving for Ux, Initial residual = 0.0128375, Final residual = 5.50193e-06, No Iterations 4
smoothSolver:  Solving for Uy, Initial residual = 0.0147644, Final residual = 7.66478e-06, No Iterations 4
DICPCG:  Solving for p, Initial residual = 0.0137973, Final residual = 0.000638014, No Iterations 90
time step continuity errors : sum local = 7.0256e-08, global = 5.53577e-21, cumulative = -3.04235e-21
DICPCG:  Solving for p, Initial residual = 0.0073762, Final residual = 9.79151e-07, No Iterations 237
time step continuity errors : sum local = 1.05756e-10, global = -5.99491e-21, cumulative = -9.03726e-21
ExecutionTime = 3.35 s  ClockTime = 3 s

Time = 0.011875

Courant Number mean: 0.0379873 max: 0.871908
smoothSolver:  Solving for Ux, Initial residual = 0.0121066, Final residual = 5.20787e-06, No Iterations 4
smoothSolver:  Solving for Uy, Initial residual = 0.0139039, Final residual = 7.21457e-06, No Iterations 4
DICPCG:  Solving for p, Initial residual = 0.013232, Final residual = 0.000590929, No Iterations 90
time step continuity errors : sum local = 6.58039e-08, global = -1.25955e-22, cumulative = -9.16322e-21
DICPCG:  Solving for p, Initial residual = 0.00703975, Final residual = 9.87219e-07, No Iterations 234
time step continuity errors : sum local = 1.07117e-10, global = -7.67627e-21, cumulative = -1.68395e-20
ExecutionTime = 3.51 s  ClockTime = 4 s

Time = 0.0125

Courant Number mean: 0.0389464 max: 0.875367
smoothSolver:  Solving for Ux, Initial residual = 0.0114542, Final residual = 4.94348e-06, No Iterations 4
smoothSolver:  Solving for Uy, Initial residual = 0.0131424, Final residual = 6.81532e-06, No Iterations 4
DICPCG:  Solving for p, Initial residual = 0.0127104, Final residual = 0.000624001, No Iterations 89
time step continuity errors : sum local = 6.91507e-08, global = 1.69787e-20, cumulative = 1.39206e-22
DICPCG:  Solving for p, Initial residual = 0.00677753, Final residual = 9.01712e-07, No Iterations 234
time step continuity errors : sum local = 9.82107e-11, global = 4.3405e-20, cumulative = 4.35443e-20
ExecutionTime = 3.74 s  ClockTime = 4 s

Time = 0.013125

Courant Number mean: 0.0398752 max: 0.878544
smoothSolver:  Solving for Ux, Initial residual = 0.0108684, Final residual = 4.70528e-06, No Iterations 4
smoothSolver:  Solving for Uy, Initial residual = 0.012458, Final residual = 6.45637e-06, No Iterations 4
DICPCG:  Solving for p, Initial residual = 0.0122599, Final residual = 0.000574839, No Iterations 89
time step continuity errors : sum local = 6.41837e-08, global = 3.25988e-20, cumulative = 7.6143e-20
DICPCG:  Solving for p, Initial residual = 0.00657303, Final residual = 9.04893e-07, No Iterations 233
time step continuity errors : sum local = 9.8939e-11, global = 6.95718e-21, cumulative = 8.31002e-20
ExecutionTime = 3.9 s  ClockTime = 4 s

Time = 0.01375

Courant Number mean: 0.040779 max: 0.881477
smoothSolver:  Solving for Ux, Initial residual = 0.0103365, Final residual = 4.48803e-06, No Iterations 4
smoothSolver:  Solving for Uy, Initial residual = 0.0118436, Final residual = 6.13385e-06, No Iterations 4
DICPCG:  Solving for p, Initial residual = 0.0118946, Final residual = 0.000551531, No Iterations 89
time step continuity errors : sum local = 6.15691e-08, global = -2.53708e-22, cumulative = 8.28465e-20
DICPCG:  Solving for p, Initial residual = 0.00634729, Final residual = 9.96903e-07, No Iterations 231
time step continuity errors : sum local = 1.09398e-10, global = 1.82693e-21, cumulative = 8.46734e-20
ExecutionTime = 4.06 s  ClockTime = 4 s

Time = 0.014375

Courant Number mean: 0.041656 max: 0.884194
smoothSolver:  Solving for Ux, Initial residual = 0.00985435, Final residual = 4.28972e-06, No Iterations 4
smoothSolver:  Solving for Uy, Initial residual = 0.0112861, Final residual = 5.84103e-06, No Iterations 4
DICPCG:  Solving for p, Initial residual = 0.0114377, Final residual = 0.000514599, No Iterations 89
time step continuity errors : sum local = 5.77663e-08, global = 3.36758e-20, cumulative = 1.18349e-19
DICPCG:  Solving for p, Initial residual = 0.00612706, Final residual = 9.94726e-07, No Iterations 230
time step continuity errors : sum local = 1.09473e-10, global = 4.27404e-20, cumulative = 1.6109e-19
ExecutionTime = 4.21 s  ClockTime = 4 s

Time = 0.015

Courant Number mean: 0.0425076 max: 0.886721
smoothSolver:  Solving for Ux, Initial residual = 0.00941545, Final residual = 4.10872e-06, No Iterations 4
smoothSolver:  Solving for Uy, Initial residual = 0.0107804, Final residual = 5.57508e-06, No Iterations 4
DICPCG:  Solving for p, Initial residual = 0.0110604, Final residual = 0.000540542, No Iterations 88
time step continuity errors : sum local = 6.05943e-08, global = -4.11409e-22, cumulative = 1.60678e-19
DICPCG:  Solving for p, Initial residual = 0.00594192, Final residual = 9.2787e-07, No Iterations 230
time step continuity errors : sum local = 1.02401e-10, global = -4.35837e-20, cumulative = 1.17095e-19
ExecutionTime = 4.37 s  ClockTime = 4 s

Time = 0.015625

Courant Number mean: 0.0433347 max: 0.88908
smoothSolver:  Solving for Ux, Initial residual = 0.00901366, Final residual = 3.94262e-06, No Iterations 4
smoothSolver:  Solving for Uy, Initial residual = 0.0103181, Final residual = 5.33185e-06, No Iterations 4
DICPCG:  Solving for p, Initial residual = 0.0107641, Final residual = 0.000515458, No Iterations 88
time step continuity errors : sum local = 5.79951e-08, global = -8.98928e-20, cumulative = 2.72017e-20
DICPCG:  Solving for p, Initial residual = 0.00582214, Final residual = 9.85101e-07, No Iterations 229
time step continuity errors : sum local = 1.08955e-10, global = -4.17165e-20, cumulative = -1.45148e-20
ExecutionTime = 4.52 s  ClockTime = 5 s

Time = 0.01625

Courant Number mean: 0.0441379 max: 0.891287
smoothSolver:  Solving for Ux, Initial residual = 0.00864429, Final residual = 3.78919e-06, No Iterations 4
smoothSolver:  Solving for Uy, Initial residual = 0.00989474, Final residual = 5.10903e-06, No Iterations 4
DICPCG:  Solving for p, Initial residual = 0.0104792, Final residual = 0.0004872, No Iterations 88
time step continuity errors : sum local = 5.49168e-08, global = -3.93591e-20, cumulative = -5.38739e-20
DICPCG:  Solving for p, Initial residual = 0.00564381, Final residual = 9.12495e-07, No Iterations 229
time step continuity errors : sum local = 1.01183e-10, global = 8.3629e-20, cumulative = 2.97551e-20
ExecutionTime = 4.68 s  ClockTime = 5 s

Time = 0.016875

Courant Number mean: 0.0449188 max: 0.89336
smoothSolver:  Solving for Ux, Initial residual = 0.00830284, Final residual = 3.64727e-06, No Iterations 4
smoothSolver:  Solving for Uy, Initial residual = 0.00950527, Final residual = 4.90382e-06, No Iterations 4
DICPCG:  Solving for p, Initial residual = 0.0102258, Final residual = 0.000503885, No Iterations 87
time step continuity errors : sum local = 5.68619e-08, global = 4.3327e-20, cumulative = 7.30821e-20
DICPCG:  Solving for p, Initial residual = 0.00548841, Final residual = 8.4345e-07, No Iterations 229
time step continuity errors : sum local = 9.37459e-11, global = -5.63433e-21, cumulative = 6.74477e-20
ExecutionTime = 4.84 s  ClockTime = 5 s

Time = 0.0175

Courant Number mean: 0.0456782 max: 0.89531
smoothSolver:  Solving for Ux, Initial residual = 0.00798768, Final residual = 3.51568e-06, No Iterations 4
smoothSolver:  Solving for Uy, Initial residual = 0.0091461, Final residual = 4.71457e-06, No Iterations 4
DICPCG:  Solving for p, Initial residual = 0.0099942, Final residual = 0.000476389, No Iterations 87
time step continuity errors : sum local = 5.38592e-08, global = 5.52451e-20, cumulative = 1.22693e-19
DICPCG:  Solving for p, Initial residual = 0.00538952, Final residual = 9.69286e-07, No Iterations 228
time step continuity errors : sum local = 1.07894e-10, global = 1.44985e-20, cumulative = 1.37191e-19
ExecutionTime = 4.99 s  ClockTime = 5 s

Time = 0.018125

Courant Number mean: 0.0464234 max: 0.897151
smoothSolver:  Solving for Ux, Initial residual = 0.00769641, Final residual = 3.39312e-06, No Iterations 4
smoothSolver:  Solving for Uy, Initial residual = 0.00881353, Final residual = 4.53923e-06, No Iterations 4
DICPCG:  Solving for p, Initial residual = 0.00976009, Final residual = 0.000480632, No Iterations 86
time step continuity errors : sum local = 5.44095e-08, global = -3.73825e-20, cumulative = 9.98089e-20
DICPCG:  Solving for p, Initial residual = 0.00523662, Final residual = 9.09136e-07, No Iterations 228
time step continuity errors : sum local = 1.01415e-10, global = -3.22462e-20, cumulative = 6.75627e-20
ExecutionTime = 5.14 s  ClockTime = 5 s

Time = 0.01875

Courant Number mean: 0.0471529 max: 0.89889
smoothSolver:  Solving for Ux, Initial residual = 0.00742507, Final residual = 3.27875e-06, No Iterations 4
smoothSolver:  Solving for Uy, Initial residual = 0.0085054, Final residual = 4.37661e-06, No Iterations 4
DICPCG:  Solving for p, Initial residual = 0.0095989, Final residual = 0.00045728, No Iterations 86
time step continuity errors : sum local = 5.18508e-08, global = 4.28495e-20, cumulative = 1.10412e-19
DICPCG:  Solving for p, Initial residual = 0.00515912, Final residual = 8.62033e-07, No Iterations 228
time step continuity errors : sum local = 9.63556e-11, global = -1.07943e-20, cumulative = 9.96179e-20
ExecutionTime = 5.29 s  ClockTime = 5 s

Time = 0.019375

Courant Number mean: 0.0478667 max: 0.900538
smoothSolver:  Solving for Ux, Initial residual = 0.00717131, Final residual = 3.17163e-06, No Iterations 4
smoothSolver:  Solving for Uy, Initial residual = 0.00821821, Final residual = 4.22522e-06, No Iterations 4
DICPCG:  Solving for p, Initial residual = 0.00946812, Final residual = 0.000471775, No Iterations 85
time step continuity errors : sum local = 5.35379e-08, global = 1.99583e-20, cumulative = 1.19576e-19
DICPCG:  Solving for p, Initial residual = 0.00502745, Final residual = 9.75374e-07, No Iterations 227
time step continuity errors : sum local = 1.09173e-10, global = 1.65763e-20, cumulative = 1.36152e-19
ExecutionTime = 5.45 s  ClockTime = 6 s

Time = 0.02

Courant Number mean: 0.0485644 max: 0.902102
smoothSolver:  Solving for Ux, Initial residual = 0.00693357, Final residual = 3.07111e-06, No Iterations 4
smoothSolver:  Solving for Uy, Initial residual = 0.00795105, Final residual = 4.0841e-06, No Iterations 4
DICPCG:  Solving for p, Initial residual = 0.00914921, Final residual = 0.000451679, No Iterations 85
time step continuity errors : sum local = 5.1336e-08, global = 1.74339e-20, cumulative = 1.53586e-19
DICPCG:  Solving for p, Initial residual = 0.00498301, Final residual = 9.44957e-07, No Iterations 227
time step continuity errors : sum local = 1.05976e-10, global = -5.8507e-21, cumulative = 1.47736e-19
ExecutionTime = 5.6 s  ClockTime = 6 s

Time = 0.020625

Courant Number mean: 0.0492468 max: 0.903589
smoothSolver:  Solving for Ux, Initial residual = 0.0067099, Final residual = 2.97678e-06, No Iterations 4
smoothSolver:  Solving for Uy, Initial residual = 0.00770094, Final residual = 3.9521e-06, No Iterations 4
DICPCG:  Solving for p, Initial residual = 0.0089571, Final residual = 0.000433863, No Iterations 85
time step continuity errors : sum local = 4.9427e-08, global = -1.37312e-20, cumulative = 1.34004e-19
DICPCG:  Solving for p, Initial residual = 0.00488133, Final residual = 9.20662e-07, No Iterations 227
time step continuity errors : sum local = 1.03436e-10, global = -3.60414e-20, cumulative = 9.79631e-20
ExecutionTime = 5.75 s  ClockTime = 6 s

Time = 0.02125

Courant Number mean: 0.0499144 max: 0.905006
smoothSolver:  Solving for Ux, Initial residual = 0.00650105, Final residual = 2.88808e-06, No Iterations 4
smoothSolver:  Solving for Uy, Initial residual = 0.00746717, Final residual = 3.82839e-06, No Iterations 4
DICPCG:  Solving for p, Initial residual = 0.00879342, Final residual = 0.000417008, No Iterations 85
time step continuity errors : sum local = 4.75759e-08, global = 2.02675e-20, cumulative = 1.18231e-19
DICPCG:  Solving for p, Initial residual = 0.00478515, Final residual = 8.96908e-07, No Iterations 227
time step continuity errors : sum local = 1.00942e-10, global = -3.27067e-20, cumulative = 8.55238e-20
ExecutionTime = 5.91 s  ClockTime = 6 s

Time = 0.021875

Courant Number mean: 0.0505671 max: 0.906357
smoothSolver:  Solving for Ux, Initial residual = 0.00630541, Final residual = 2.80434e-06, No Iterations 4
smoothSolver:  Solving for Uy, Initial residual = 0.00724757, Final residual = 3.71238e-06, No Iterations 4
DICPCG:  Solving for p, Initial residual = 0.00864353, Final residual = 0.000404064, No Iterations 85
time step continuity errors : sum local = 4.61882e-08, global = 2.39232e-20, cumulative = 1.09447e-19
DICPCG:  Solving for p, Initial residual = 0.00469374, Final residual = 8.74623e-07, No Iterations 227
time step continuity errors : sum local = 9.86023e-11, global = -4.44965e-20, cumulative = 6.49505e-20
ExecutionTime = 6.06 s  ClockTime = 6 s

Time = 0.0225

Courant Number mean: 0.051206 max: 0.907647
smoothSolver:  Solving for Ux, Initial residual = 0.00612111, Final residual = 2.7252e-06, No Iterations 4
smoothSolver:  Solving for Uy, Initial residual = 0.00704126, Final residual = 3.60329e-06, No Iterations 4
DICPCG:  Solving for p, Initial residual = 0.00850395, Final residual = 0.000424835, No Iterations 84
time step continuity errors : sum local = 4.85612e-08, global = -3.51113e-20, cumulative = 2.98392e-20
DICPCG:  Solving for p, Initial residual = 0.00460064, Final residual = 8.52038e-07, No Iterations 227
time step continuity errors : sum local = 9.62304e-11, global = -1.14518e-20, cumulative = 1.83874e-20
ExecutionTime = 6.22 s  ClockTime = 6 s

Time = 0.023125

Courant Number mean: 0.0518312 max: 0.908882
smoothSolver:  Solving for Ux, Initial residual = 0.00594702, Final residual = 2.65062e-06, No Iterations 4
smoothSolver:  Solving for Uy, Initial residual = 0.00684738, Final residual = 3.50068e-06, No Iterations 4
DICPCG:  Solving for p, Initial residual = 0.0083793, Final residual = 0.000411148, No Iterations 84
time step continuity errors : sum local = 4.70774e-08, global = -2.12003e-20, cumulative = -2.81289e-21
DICPCG:  Solving for p, Initial residual = 0.00456483, Final residual = 9.92644e-07, No Iterations 226
time step continuity errors : sum local = 1.12331e-10, global = 2.48906e-21, cumulative = -3.23822e-22
ExecutionTime = 6.38 s  ClockTime = 6 s

Time = 0.02375

Courant Number mean: 0.0524472 max: 0.910064
smoothSolver:  Solving for Ux, Initial residual = 0.00578204, Final residual = 2.57994e-06, No Iterations 4
smoothSolver:  Solving for Uy, Initial residual = 0.00666409, Final residual = 3.40379e-06, No Iterations 4
DICPCG:  Solving for p, Initial residual = 0.0082442, Final residual = 0.000399137, No Iterations 84
time step continuity errors : sum local = 4.57846e-08, global = 4.54618e-20, cumulative = 4.5138e-20
DICPCG:  Solving for p, Initial residual = 0.00448623, Final residual = 9.6441e-07, No Iterations 226
time step continuity errors : sum local = 1.09326e-10, global = -2.29502e-21, cumulative = 4.2843e-20
ExecutionTime = 6.53 s  ClockTime = 7 s

Time = 0.024375

Courant Number mean: 0.0530542 max: 0.911198
smoothSolver:  Solving for Ux, Initial residual = 0.00562513, Final residual = 2.51285e-06, No Iterations 4
smoothSolver:  Solving for Uy, Initial residual = 0.00649126, Final residual = 3.31223e-06, No Iterations 4
DICPCG:  Solving for p, Initial residual = 0.00811011, Final residual = 0.000386562, No Iterations 84
time step continuity errors : sum local = 4.44183e-08, global = -1.86352e-20, cumulative = 2.42078e-20
DICPCG:  Solving for p, Initial residual = 0.00441631, Final residual = 9.38055e-07, No Iterations 226
time step continuity errors : sum local = 1.06516e-10, global = 1.84535e-20, cumulative = 4.26613e-20
ExecutionTime = 6.68 s  ClockTime = 7 s

Time = 0.025

Courant Number mean: 0.0536507 max: 0.912287
smoothSolver:  Solving for Ux, Initial residual = 0.00547618, Final residual = 2.44914e-06, No Iterations 4
smoothSolver:  Solving for Uy, Initial residual = 0.00632784, Final residual = 3.22574e-06, No Iterations 4
DICPCG:  Solving for p, Initial residual = 0.0079763, Final residual = 0.000375646, No Iterations 84
time step continuity errors : sum local = 4.32383e-08, global = -2.39685e-20, cumulative = 1.86928e-20
DICPCG:  Solving for p, Initial residual = 0.00434911, Final residual = 9.11249e-07, No Iterations 226
time step continuity errors : sum local = 1.03639e-10, global = 9.80782e-21, cumulative = 2.85006e-20
ExecutionTime = 6.9 s  ClockTime = 7 s

Time = 0.025625

Courant Number mean: 0.0542367 max: 0.913333
smoothSolver:  Solving for Ux, Initial residual = 0.00533566, Final residual = 2.3885e-06, No Iterations 4
smoothSolver:  Solving for Uy, Initial residual = 0.00617312, Final residual = 3.14375e-06, No Iterations 4
DICPCG:  Solving for p, Initial residual = 0.00784975, Final residual = 0.000368925, No Iterations 84
time step continuity errors : sum local = 4.25306e-08, global = -8.63014e-21, cumulative = 1.98705e-20
DICPCG:  Solving for p, Initial residual = 0.00428895, Final residual = 9.83265e-07, No Iterations 225
time step continuity errors : sum local = 1.12052e-10, global = 6.15554e-20, cumulative = 8.14259e-20
ExecutionTime = 7.05 s  ClockTime = 7 s

Time = 0.02625

Courant Number mean: 0.0548124 max: 0.91434
smoothSolver:  Solving for Ux, Initial residual = 0.00520205, Final residual = 2.33052e-06, No Iterations 4
smoothSolver:  Solving for Uy, Initial residual = 0.00602641, Final residual = 3.066e-06, No Iterations 4
DICPCG:  Solving for p, Initial residual = 0.00773794, Final residual = 0.000358541, No Iterations 84
time step continuity errors : sum local = 4.14044e-08, global = -1.63623e-20, cumulative = 6.50636e-20
DICPCG:  Solving for p, Initial residual = 0.00422839, Final residual = 9.54331e-07, No Iterations 225
time step continuity errors : sum local = 1.08932e-10, global = 4.03817e-20, cumulative = 1.05445e-19
ExecutionTime = 7.2 s  ClockTime = 7 s

Time = 0.026875

Courant Number mean: 0.0553782 max: 0.91531
smoothSolver:  Solving for Ux, Initial residual = 0.00507469, Final residual = 2.27504e-06, No Iterations 4
smoothSolver:  Solving for Uy, Initial residual = 0.00588716, Final residual = 2.99216e-06, No Iterations 4
DICPCG:  Solving for p, Initial residual = 0.00763468, Final residual = 0.000378774, No Iterations 83
time step continuity errors : sum local = 4.37475e-08, global = -2.46594e-20, cumulative = 8.07859e-20
DICPCG:  Solving for p, Initial residual = 0.004173, Final residual = 9.25916e-07, No Iterations 225
time step continuity errors : sum local = 1.05853e-10, global = -3.67497e-20, cumulative = 4.40361e-20
ExecutionTime = 7.36 s  ClockTime = 7 s

Time = 0.0275

Courant Number mean: 0.0559342 max: 0.916245
smoothSolver:  Solving for Ux, Initial residual = 0.00495305, Final residual = 2.22217e-06, No Iterations 4
smoothSolver:  Solving for Uy, Initial residual = 0.00575506, Final residual = 2.92208e-06, No Iterations 4
DICPCG:  Solving for p, Initial residual = 0.00755566, Final residual = 0.000368928, No Iterations 83
time step continuity errors : sum local = 4.26686e-08, global = -6.81152e-21, cumulative = 3.72246e-20
DICPCG:  Solving for p, Initial residual = 0.00415633, Final residual = 9.95062e-07, No Iterations 224
time step continuity errors : sum local = 1.13927e-10, global = -5.98622e-20, cumulative = -2.26376e-20
ExecutionTime = 7.51 s  ClockTime = 8 s

Time = 0.028125

Courant Number mean: 0.0564802 max: 0.917147
smoothSolver:  Solving for Ux, Initial residual = 0.00483703, Final residual = 2.17188e-06, No Iterations 4
smoothSolver:  Solving for Uy, Initial residual = 0.005629, Final residual = 2.85527e-06, No Iterations 4
DICPCG:  Solving for p, Initial residual = 0.00746469, Final residual = 0.000360189, No Iterations 83
time step continuity errors : sum local = 4.17268e-08, global = -2.86285e-20, cumulative = -5.12661e-20
DICPCG:  Solving for p, Initial residual = 0.00409945, Final residual = 9.6529e-07, No Iterations 224
time step continuity errors : sum local = 1.10674e-10, global = 3.25514e-20, cumulative = -1.87147e-20
ExecutionTime = 7.66 s  ClockTime = 8 s

Time = 0.02875

Courant Number mean: 0.0570171 max: 0.918018
smoothSolver:  Solving for Ux, Initial residual = 0.0047261, Final residual = 2.12396e-06, No Iterations 4
smoothSolver:  Solving for Uy, Initial residual = 0.00550902, Final residual = 2.79163e-06, No Iterations 4
DICPCG:  Solving for p, Initial residual = 0.0073729, Final residual = 0.000353258, No Iterations 83
time step continuity errors : sum local = 4.09741e-08, global = 7.5652e-20, cumulative = 5.69372e-20
DICPCG:  Solving for p, Initial residual = 0.00404964, Final residual = 9.38199e-07, No Iterations 224
time step continuity errors : sum local = 1.07712e-10, global = 4.16336e-20, cumulative = 9.85708e-20
ExecutionTime = 7.82 s  ClockTime = 8 s

Time = 0.029375

Courant Number mean: 0.0575446 max: 0.91886
smoothSolver:  Solving for Ux, Initial residual = 0.00462019, Final residual = 2.07832e-06, No Iterations 4
smoothSolver:  Solving for Uy, Initial residual = 0.00539466, Final residual = 2.73102e-06, No Iterations 4
DICPCG:  Solving for p, Initial residual = 0.00729604, Final residual = 0.00034777, No Iterations 83
time step continuity errors : sum local = 4.03934e-08, global = 4.55041e-20, cumulative = 1.44075e-19
DICPCG:  Solving for p, Initial residual = 0.00400051, Final residual = 9.12849e-07, No Iterations 224
time step continuity errors : sum local = 1.0494e-10, global = -7.19078e-20, cumulative = 7.21671e-20
ExecutionTime = 7.97 s  ClockTime = 8 s

Time = 0.03

Courant Number mean: 0.0580639 max: 0.919674
smoothSolver:  Solving for Ux, Initial residual = 0.00451925, Final residual = 2.03446e-06, No Iterations 4
smoothSolver:  Solving for Uy, Initial residual = 0.00528561, Final residual = 2.67317e-06, No Iterations 4
DICPCG:  Solving for p, Initial residual = 0.00721005, Final residual = 0.000341253, No Iterations 83
time step continuity errors : sum local = 3.96855e-08, global = -2.99451e-20, cumulative = 4.2222e-20
DICPCG:  Solving for p, Initial residual = 0.00395532, Final residual = 8.91739e-07, No Iterations 224
time step continuity errors : sum local = 1.02662e-10, global = -2.87538e-20, cumulative = 1.34682e-20
ExecutionTime = 8.12 s  ClockTime = 8 s

Time = 0.030625

Courant Number mean: 0.0585777 max: 0.920463
smoothSolver:  Solving for Ux, Initial residual = 0.0044227, Final residual = 1.99216e-06, No Iterations 4
smoothSolver:  Solving for Uy, Initial residual = 0.00518124, Final residual = 2.61785e-06, No Iterations 4
DICPCG:  Solving for p, Initial residual = 0.0070985, Final residual = 0.000331924, No Iterations 83
time step continuity errors : sum local = 3.86588e-08, global = -3.52865e-20, cumulative = -2.18183e-20
DICPCG:  Solving for p, Initial residual = 0.00390667, Final residual = 9.78508e-07, No Iterations 223
time step continuity errors : sum local = 1.12856e-10, global = -8.79301e-20, cumulative = -1.09748e-19
ExecutionTime = 8.27 s  ClockTime = 8 s

Time = 0.03125

Courant Number mean: 0.0590848 max: 0.921227
smoothSolver:  Solving for Ux, Initial residual = 0.00432991, Final residual = 1.95127e-06, No Iterations 4
smoothSolver:  Solving for Uy, Initial residual = 0.00508158, Final residual = 2.56496e-06, No Iterations 4
DICPCG:  Solving for p, Initial residual = 0.0070159, Final residual = 0.0003263, No Iterations 83
time step continuity errors : sum local = 3.80527e-08, global = -2.42626e-20, cumulative = -1.34011e-19
DICPCG:  Solving for p, Initial residual = 0.0038674, Final residual = 9.54579e-07, No Iterations 223
time step continuity errors : sum local = 1.10256e-10, global = -2.02594e-20, cumulative = -1.5427e-19
ExecutionTime = 8.42 s  ClockTime = 9 s

Time = 0.031875

Courant Number mean: 0.0595848 max: 0.921968
smoothSolver:  Solving for Ux, Initial residual = 0.00424068, Final residual = 1.91189e-06, No Iterations 4
smoothSolver:  Solving for Uy, Initial residual = 0.00498628, Final residual = 2.51436e-06, No Iterations 4
DICPCG:  Solving for p, Initial residual = 0.00693755, Final residual = 0.0003201, No Iterations 83
time step continuity errors : sum local = 3.73812e-08, global = -2.44349e-20, cumulative = -1.78705e-19
DICPCG:  Solving for p, Initial residual = 0.0038261, Final residual = 9.32137e-07, No Iterations 223
time step continuity errors : sum local = 1.07818e-10, global = -4.09068e-20, cumulative = -2.19612e-19
ExecutionTime = 8.57 s  ClockTime = 9 s

Time = 0.0325

Courant Number mean: 0.0600779 max: 0.922686
smoothSolver:  Solving for Ux, Initial residual = 0.00415484, Final residual = 1.87431e-06, No Iterations 4
smoothSolver:  Solving for Uy, Initial residual = 0.00489504, Final residual = 2.46591e-06, No Iterations 4
DICPCG:  Solving for p, Initial residual = 0.00686792, Final residual = 0.000315457, No Iterations 83
time step continuity errors : sum local = 3.68852e-08, global = 7.98334e-21, cumulative = -2.11629e-19
DICPCG:  Solving for p, Initial residual = 0.00378883, Final residual = 9.11803e-07, No Iterations 223
time step continuity errors : sum local = 1.05612e-10, global = 6.30476e-21, cumulative = -2.05324e-19
ExecutionTime = 8.72 s  ClockTime = 9 s

Time = 0.033125

Courant Number mean: 0.060564 max: 0.923384
smoothSolver:  Solving for Ux, Initial residual = 0.00407235, Final residual = 1.83844e-06, No Iterations 4
smoothSolver:  Solving for Uy, Initial residual = 0.00480758, Final residual = 2.41947e-06, No Iterations 4
DICPCG:  Solving for p, Initial residual = 0.00679687, Final residual = 0.000310108, No Iterations 83
time step continuity errors : sum local = 3.63065e-08, global = -2.34434e-20, cumulative = -2.28767e-19
DICPCG:  Solving for p, Initial residual = 0.00375153, Final residual = 8.91829e-07, No Iterations 223
time step continuity errors : sum local = 1.03438e-10, global = 2.03078e-20, cumulative = -2.0846e-19
ExecutionTime = 8.87 s  ClockTime = 9 s

Time = 0.03375

Courant Number mean: 0.0610433 max: 0.924062
smoothSolver:  Solving for Ux, Initial residual = 0.00399276, Final residual = 1.80392e-06, No Iterations 4
smoothSolver:  Solving for Uy, Initial residual = 0.00472377, Final residual = 2.37492e-06, No Iterations 4
DICPCG:  Solving for p, Initial residual = 0.00673084, Final residual = 0.000306055, No Iterations 83
time step continuity errors : sum local = 3.58747e-08, global = 3.0361e-20, cumulative = -1.78099e-19
DICPCG:  Solving for p, Initial residual = 0.00371515, Final residual = 8.73448e-07, No Iterations 223
time step continuity errors : sum local = 1.01439e-10, global = 2.26232e-20, cumulative = -1.55475e-19
ExecutionTime = 9.02 s  ClockTime = 9 s

Time = 0.034375

Courant Number mean: 0.0615155 max: 0.924721
smoothSolver:  Solving for Ux, Initial residual = 0.00391627, Final residual = 1.77053e-06, No Iterations 4
smoothSolver:  Solving for Uy, Initial residual = 0.00464331, Final residual = 2.33216e-06, No Iterations 4
DICPCG:  Solving for p, Initial residual = 0.00666469, Final residual = 0.000332479, No Iterations 82
time step continuity errors : sum local = 3.89543e-08, global = 1.69308e-20, cumulative = -1.38545e-19
DICPCG:  Solving for p, Initial residual = 0.00368024, Final residual = 8.42898e-07, No Iterations 223
time step continuity errors : sum local = 9.8019e-11, global = -2.09899e-20, cumulative = -1.59535e-19
ExecutionTime = 9.17 s  ClockTime = 9 s

Time = 0.035

Courant Number mean: 0.0619813 max: 0.925362
smoothSolver:  Solving for Ux, Initial residual = 0.00384278, Final residual = 1.73814e-06, No Iterations 4
smoothSolver:  Solving for Uy, Initial residual = 0.0045663, Final residual = 2.29122e-06, No Iterations 4
DICPCG:  Solving for p, Initial residual = 0.00661656, Final residual = 0.000329383, No Iterations 82
time step continuity errors : sum local = 3.86228e-08, global = -3.87771e-22, cumulative = -1.59922e-19
DICPCG:  Solving for p, Initial residual = 0.00368203, Final residual = 9.99991e-07, No Iterations 222
time step continuity errors : sum local = 1.16472e-10, global = 1.95031e-20, cumulative = -1.40419e-19
ExecutionTime = 9.32 s  ClockTime = 9 s

Time = 0.035625

Courant Number mean: 0.0624405 max: 0.925987
smoothSolver:  Solving for Ux, Initial residual = 0.00377217, Final residual = 1.70684e-06, No Iterations 4
smoothSolver:  Solving for Uy, Initial residual = 0.00449203, Final residual = 2.25175e-06, No Iterations 4
DICPCG:  Solving for p, Initial residual = 0.00654995, Final residual = 0.000323902, No Iterations 82
time step continuity errors : sum local = 3.80329e-08, global = -2.00154e-20, cumulative = -1.60435e-19
DICPCG:  Solving for p, Initial residual = 0.00364582, Final residual = 9.85709e-07, No Iterations 222
time step continuity errors : sum local = 1.14946e-10, global = 2.26394e-20, cumulative = -1.37795e-19
ExecutionTime = 9.47 s  ClockTime = 10 s

Time = 0.03625

Courant Number mean: 0.0628933 max: 0.926595
smoothSolver:  Solving for Ux, Initial residual = 0.00370411, Final residual = 1.67663e-06, No Iterations 4
smoothSolver:  Solving for Uy, Initial residual = 0.00442053, Final residual = 2.21387e-06, No Iterations 4
DICPCG:  Solving for p, Initial residual = 0.00648322, Final residual = 0.000317093, No Iterations 82
time step continuity errors : sum local = 3.72693e-08, global = -3.28639e-20, cumulative = -1.70659e-19
DICPCG:  Solving for p, Initial residual = 0.00361229, Final residual = 9.70624e-07, No Iterations 222
time step continuity errors : sum local = 1.13315e-10, global = -5.02165e-20, cumulative = -2.20876e-19
ExecutionTime = 9.63 s  ClockTime = 10 s

Time = 0.036875

Courant Number mean: 0.06334 max: 0.927187
smoothSolver:  Solving for Ux, Initial residual = 0.00363843, Final residual = 1.64753e-06, No Iterations 4
smoothSolver:  Solving for Uy, Initial residual = 0.00435181, Final residual = 2.17738e-06, No Iterations 4
DICPCG:  Solving for p, Initial residual = 0.00641638, Final residual = 0.000314724, No Iterations 82
time step continuity errors : sum local = 3.70341e-08, global = 4.64787e-20, cumulative = -1.74397e-19
DICPCG:  Solving for p, Initial residual = 0.00358465, Final residual = 9.5774e-07, No Iterations 222
time step continuity errors : sum local = 1.11938e-10, global = -4.76196e-21, cumulative = -1.79159e-19
ExecutionTime = 9.78 s  ClockTime = 10 s

Time = 0.0375

Courant Number mean: 0.0637803 max: 0.927765
smoothSolver:  Solving for Ux, Initial residual = 0.00357495, Final residual = 1.61965e-06, No Iterations 4
smoothSolver:  Solving for Uy, Initial residual = 0.00428561, Final residual = 2.14227e-06, No Iterations 4
DICPCG:  Solving for p, Initial residual = 0.00636251, Final residual = 0.000309069, No Iterations 82
time step continuity errors : sum local = 3.64061e-08, global = -2.75014e-20, cumulative = -2.0666e-19
DICPCG:  Solving for p, Initial residual = 0.00355444, Final residual = 9.3827e-07, No Iterations 222
time step continuity errors : sum local = 1.09793e-10, global = 3.53776e-20, cumulative = -1.71283e-19
ExecutionTime = 10 s  ClockTime = 10 s

Time = 0.038125

Courant Number mean: 0.0642148 max: 0.928329
smoothSolver:  Solving for Ux, Initial residual = 0.00351361, Final residual = 1.59274e-06, No Iterations 4
smoothSolver:  Solving for Uy, Initial residual = 0.00422194, Final residual = 2.1084e-06, No Iterations 4
DICPCG:  Solving for p, Initial residual = 0.00631305, Final residual = 0.000307218, No Iterations 82
time step continuity errors : sum local = 3.62295e-08, global = 2.8237e-20, cumulative = -1.43046e-19
DICPCG:  Solving for p, Initial residual = 0.00352543, Final residual = 9.26062e-07, No Iterations 222
time step continuity errors : sum local = 1.08496e-10, global = 1.59604e-20, cumulative = -1.27085e-19
ExecutionTime = 10.15 s  ClockTime = 10 s

Time = 0.03875

Courant Number mean: 0.0646456 max: 0.92888
smoothSolver:  Solving for Ux, Initial residual = 0.00345408, Final residual = 1.56661e-06, No Iterations 4
smoothSolver:  Solving for Uy, Initial residual = 0.00416066, Final residual = 2.07577e-06, No Iterations 4
DICPCG:  Solving for p, Initial residual = 0.00626127, Final residual = 0.000303416, No Iterations 82
time step continuity errors : sum local = 3.58209e-08, global = 2.5304e-20, cumulative = -1.01781e-19
DICPCG:  Solving for p, Initial residual = 0.00349491, Final residual = 9.12667e-07, No Iterations 222
time step continuity errors : sum local = 1.07058e-10, global = 5.71683e-20, cumulative = -4.4613e-20
ExecutionTime = 10.3 s  ClockTime = 10 s

Time = 0.039375

Courant Number mean: 0.0650719 max: 0.929428
smoothSolver:  Solving for Ux, Initial residual = 0.00339641, Final residual = 1.54118e-06, No Iterations 4
smoothSolver:  Solving for Uy, Initial residual = 0.00410148, Final residual = 2.04427e-06, No Iterations 4
DICPCG:  Solving for p, Initial residual = 0.00620877, Final residual = 0.00029987, No Iterations 82
time step continuity errors : sum local = 3.54456e-08, global = -3.23516e-20, cumulative = -7.69646e-20
DICPCG:  Solving for p, Initial residual = 0.00346559, Final residual = 8.98033e-07, No Iterations 222
time step continuity errors : sum local = 1.05475e-10, global = -2.90876e-20, cumulative = -1.06052e-19
ExecutionTime = 10.45 s  ClockTime = 11 s

Time = 0.04

Courant Number mean: 0.0654934 max: 0.930047
smoothSolver:  Solving for Ux, Initial residual = 0.00334079, Final residual = 1.5165e-06, No Iterations 4
smoothSolver:  Solving for Uy, Initial residual = 0.00404444, Final residual = 2.0139e-06, No Iterations 4
DICPCG:  Solving for p, Initial residual = 0.0061578, Final residual = 0.00029572, No Iterations 82
time step continuity errors : sum local = 3.49952e-08, global = -1.05811e-20, cumulative = -1.16633e-19
DICPCG:  Solving for p, Initial residual = 0.00343622, Final residual = 8.83235e-07, No Iterations 222
time step continuity errors : sum local = 1.03866e-10, global = 3.11201e-20, cumulative = -8.55132e-20
ExecutionTime = 10.6 s  ClockTime = 11 s

Time = 0.040625

Courant Number mean: 0.06591 max: 0.930652
smoothSolver:  Solving for Ux, Initial residual = 0.00328705, Final residual = 1.49262e-06, No Iterations 4
smoothSolver:  Solving for Uy, Initial residual = 0.0039893, Final residual = 1.98459e-06, No Iterations 4
DICPCG:  Solving for p, Initial residual = 0.00610671, Final residual = 0.00029071, No Iterations 82
time step continuity errors : sum local = 3.44461e-08, global = -2.06475e-20, cumulative = -1.06161e-19
DICPCG:  Solving for p, Initial residual = 0.00340692, Final residual = 8.6927e-07, No Iterations 222
time step continuity errors : sum local = 1.02351e-10, global = 6.16384e-21, cumulative = -9.99968e-20
ExecutionTime = 10.74 s  ClockTime = 11 s

Time = 0.04125

Courant Number mean: 0.0663217 max: 0.931245
smoothSolver:  Solving for Ux, Initial residual = 0.00323506, Final residual = 9.96082e-06, No Iterations 3
smoothSolver:  Solving for Uy, Initial residual = 0.00393606, Final residual = 1.95626e-06, No Iterations 4
DICPCG:  Solving for p, Initial residual = 0.00605523, Final residual = 0.000291276, No Iterations 82
time step continuity errors : sum local = 3.44778e-08, global = -1.26142e-20, cumulative = -1.12611e-19
DICPCG:  Solving for p, Initial residual = 0.00338262, Final residual = 8.74545e-07, No Iterations 222
time step continuity errors : sum local = 1.03099e-10, global = -3.11516e-20, cumulative = -1.43763e-19
ExecutionTime = 10.89 s  ClockTime = 11 s

Time = 0.041875

Courant Number mean: 0.0667286 max: 0.931826
smoothSolver:  Solving for Ux, Initial residual = 0.00318471, Final residual = 9.80987e-06, No Iterations 3
smoothSolver:  Solving for Uy, Initial residual = 0.00388433, Final residual = 1.92882e-06, No Iterations 4
DICPCG:  Solving for p, Initial residual = 0.00600612, Final residual = 0.00028888, No Iterations 82
time step continuity errors : sum local = 3.42896e-08, global = 2.65368e-20, cumulative = -1.17226e-19
DICPCG:  Solving for p, Initial residual = 0.00335918, Final residual = 8.5844e-07, No Iterations 222
time step continuity errors : sum local = 1.01324e-10, global = -2.75101e-20, cumulative = -1.44736e-19
ExecutionTime = 11.04 s  ClockTime = 11 s

Time = 0.0425

Courant Number mean: 0.0671307 max: 0.932395
smoothSolver:  Solving for Ux, Initial residual = 0.00313574, Final residual = 9.66243e-06, No Iterations 3
smoothSolver:  Solving for Uy, Initial residual = 0.00383469, Final residual = 1.90243e-06, No Iterations 4
DICPCG:  Solving for p, Initial residual = 0.00595735, Final residual = 0.000285265, No Iterations 82
time step continuity errors : sum local = 3.38579e-08, global = -6.78223e-22, cumulative = -1.45414e-19
DICPCG:  Solving for p, Initial residual = 0.00333352, Final residual = 8.50544e-07, No Iterations 222
time step continuity errors : sum local = 1.00512e-10, global = 1.48115e-20, cumulative = -1.30603e-19
ExecutionTime = 11.19 s  ClockTime = 11 s

Time = 0.043125

Courant Number mean: 0.0675282 max: 0.932952
smoothSolver:  Solving for Ux, Initial residual = 0.0030882, Final residual = 9.51866e-06, No Iterations 3
smoothSolver:  Solving for Uy, Initial residual = 0.00378653, Final residual = 1.87686e-06, No Iterations 4
DICPCG:  Solving for p, Initial residual = 0.00591279, Final residual = 0.000282729, No Iterations 82
time step continuity errors : sum local = 3.36246e-08, global = 5.60463e-20, cumulative = -7.45564e-20
DICPCG:  Solving for p, Initial residual = 0.00330967, Final residual = 8.35528e-07, No Iterations 222
time step continuity errors : sum local = 9.88498e-11, global = -3.63936e-20, cumulative = -1.1095e-19
ExecutionTime = 11.35 s  ClockTime = 11 s

Time = 0.04375

Courant Number mean: 0.0679212 max: 0.933496
smoothSolver:  Solving for Ux, Initial residual = 0.00304197, Final residual = 9.37897e-06, No Iterations 3
smoothSolver:  Solving for Uy, Initial residual = 0.00373999, Final residual = 1.85214e-06, No Iterations 4
DICPCG:  Solving for p, Initial residual = 0.00595094, Final residual = 0.000295549, No Iterations 70
time step continuity errors : sum local = 3.51375e-08, global = 2.94694e-20, cumulative = -8.14806e-20
DICPCG:  Solving for p, Initial residual = 0.00322812, Final residual = 8.39646e-07, No Iterations 222
time step continuity errors : sum local = 9.94781e-11, global = 2.43846e-21, cumulative = -7.90422e-20
ExecutionTime = 11.49 s  ClockTime = 12 s

Time = 0.044375

Courant Number mean: 0.0683094 max: 0.93403
smoothSolver:  Solving for Ux, Initial residual = 0.00299537, Final residual = 9.2377e-06, No Iterations 3
smoothSolver:  Solving for Uy, Initial residual = 0.00369728, Final residual = 1.82948e-06, No Iterations 4
DICPCG:  Solving for p, Initial residual = 0.00583578, Final residual = 0.000288382, No Iterations 69
time step continuity errors : sum local = 3.45057e-08, global = 1.39105e-20, cumulative = -6.51317e-20
DICPCG:  Solving for p, Initial residual = 0.00326328, Final residual = 8.18227e-07, No Iterations 222
time step continuity errors : sum local = 9.70627e-11, global = 9.97732e-20, cumulative = 3.46415e-20
ExecutionTime = 11.63 s  ClockTime = 12 s

Time = 0.045

Courant Number mean: 0.068693 max: 0.934551
smoothSolver:  Solving for Ux, Initial residual = 0.0029518, Final residual = 9.10598e-06, No Iterations 3
smoothSolver:  Solving for Uy, Initial residual = 0.00365316, Final residual = 1.80602e-06, No Iterations 4
DICPCG:  Solving for p, Initial residual = 0.00580552, Final residual = 0.000283812, No Iterations 68
time step continuity errors : sum local = 3.38848e-08, global = -4.87015e-21, cumulative = 2.97714e-20
DICPCG:  Solving for p, Initial residual = 0.0032306, Final residual = 8.07424e-07, No Iterations 222
time step continuity errors : sum local = 9.58972e-11, global = 1.38046e-20, cumulative = 4.3576e-20
ExecutionTime = 11.78 s  ClockTime = 12 s

Time = 0.045625

Courant Number mean: 0.0690725 max: 0.935062
smoothSolver:  Solving for Ux, Initial residual = 0.00290958, Final residual = 8.97819e-06, No Iterations 3
smoothSolver:  Solving for Uy, Initial residual = 0.00361108, Final residual = 1.78363e-06, No Iterations 4
DICPCG:  Solving for p, Initial residual = 0.00581336, Final residual = 0.00029036, No Iterations 67
time step continuity errors : sum local = 3.48023e-08, global = -4.65005e-20, cumulative = -2.92452e-21
DICPCG:  Solving for p, Initial residual = 0.00321939, Final residual = 9.88583e-07, No Iterations 221
time step continuity errors : sum local = 1.17598e-10, global = -3.07968e-20, cumulative = -3.37213e-20
ExecutionTime = 11.92 s  ClockTime = 12 s

Time = 0.04625

Courant Number mean: 0.0694476 max: 0.935563
smoothSolver:  Solving for Ux, Initial residual = 0.00286883, Final residual = 8.85588e-06, No Iterations 3
smoothSolver:  Solving for Uy, Initial residual = 0.00356993, Final residual = 1.76175e-06, No Iterations 4
DICPCG:  Solving for p, Initial residual = 0.00571656, Final residual = 0.000278795, No Iterations 68
time step continuity errors : sum local = 3.33908e-08, global = 1.65416e-20, cumulative = -1.71797e-20
DICPCG:  Solving for p, Initial residual = 0.00318428, Final residual = 9.77553e-07, No Iterations 221
time step continuity errors : sum local = 1.16418e-10, global = 3.38257e-20, cumulative = 1.6646e-20
ExecutionTime = 12.06 s  ClockTime = 12 s

Time = 0.046875

Courant Number mean: 0.0698185 max: 0.936053
smoothSolver:  Solving for Ux, Initial residual = 0.00282933, Final residual = 8.73657e-06, No Iterations 3
smoothSolver:  Solving for Uy, Initial residual = 0.0035301, Final residual = 1.74058e-06, No Iterations 4
DICPCG:  Solving for p, Initial residual = 0.00566635, Final residual = 0.000277614, No Iterations 68
time step continuity errors : sum local = 3.33368e-08, global = -6.17062e-20, cumulative = -4.50602e-20
DICPCG:  Solving for p, Initial residual = 0.00318788, Final residual = 9.66388e-07, No Iterations 221
time step continuity errors : sum local = 1.15211e-10, global = 3.52139e-20, cumulative = -9.84632e-21
ExecutionTime = 12.21 s  ClockTime = 12 s

Time = 0.0475

Courant Number mean: 0.0701853 max: 0.936533
smoothSolver:  Solving for Ux, Initial residual = 0.00279083, Final residual = 8.61977e-06, No Iterations 3
smoothSolver:  Solving for Uy, Initial residual = 0.00349149, Final residual = 1.72003e-06, No Iterations 4
DICPCG:  Solving for p, Initial residual = 0.00561762, Final residual = 0.000275472, No Iterations 68
time step continuity errors : sum local = 3.30794e-08, global = -4.17313e-20, cumulative = -5.15776e-20
DICPCG:  Solving for p, Initial residual = 0.00316793, Final residual = 9.49736e-07, No Iterations 221
time step continuity errors : sum local = 1.13344e-10, global = -4.17703e-20, cumulative = -9.33479e-20
ExecutionTime = 12.35 s  ClockTime = 12 s

Time = 0.048125

Courant Number mean: 0.0705498 max: 0.937005
smoothSolver:  Solving for Ux, Initial residual = 0.0027532, Final residual = 8.50503e-06, No Iterations 3
smoothSolver:  Solving for Uy, Initial residual = 0.00345405, Final residual = 1.70009e-06, No Iterations 4
DICPCG:  Solving for p, Initial residual = 0.00558, Final residual = 0.000273571, No Iterations 68
time step continuity errors : sum local = 3.29135e-08, global = 1.75975e-20, cumulative = -7.57504e-20
DICPCG:  Solving for p, Initial residual = 0.00314942, Final residual = 9.44274e-07, No Iterations 221
time step continuity errors : sum local = 1.12804e-10, global = 7.18912e-20, cumulative = -3.85916e-21
ExecutionTime = 12.49 s  ClockTime = 13 s

Time = 0.04875

Courant Number mean: 0.0709114 max: 0.937468
smoothSolver:  Solving for Ux, Initial residual = 0.00271647, Final residual = 8.39263e-06, No Iterations 3
smoothSolver:  Solving for Uy, Initial residual = 0.00341763, Final residual = 1.68074e-06, No Iterations 4
DICPCG:  Solving for p, Initial residual = 0.00558929, Final residual = 0.000278143, No Iterations 67
time step continuity errors : sum local = 3.34756e-08, global = -1.65145e-21, cumulative = -5.51061e-21
DICPCG:  Solving for p, Initial residual = 0.00311325, Final residual = 9.38957e-07, No Iterations 221
time step continuity errors : sum local = 1.1227e-10, global = 8.02334e-21, cumulative = 2.51273e-21
ExecutionTime = 12.64 s  ClockTime = 13 s

Time = 0.049375

Courant Number mean: 0.0712698 max: 0.937922
smoothSolver:  Solving for Ux, Initial residual = 0.00268044, Final residual = 8.28255e-06, No Iterations 3
smoothSolver:  Solving for Uy, Initial residual = 0.00338236, Final residual = 1.662e-06, No Iterations 4
DICPCG:  Solving for p, Initial residual = 0.00551025, Final residual = 0.000273632, No Iterations 67
time step continuity errors : sum local = 3.2986e-08, global = 1.79827e-20, cumulative = 2.04954e-20
DICPCG:  Solving for p, Initial residual = 0.0031223, Final residual = 9.23803e-07, No Iterations 221
time step continuity errors : sum local = 1.10574e-10, global = 4.74797e-20, cumulative = 6.79752e-20
ExecutionTime = 12.78 s  ClockTime = 13 s

Time = 0.05

Courant Number mean: 0.0716251 max: 0.938367
smoothSolver:  Solving for Ux, Initial residual = 0.00264535, Final residual = 8.17768e-06, No Iterations 3
smoothSolver:  Solving for Uy, Initial residual = 0.00334789, Final residual = 1.64376e-06, No Iterations 4
DICPCG:  Solving for p, Initial residual = 0.00547539, Final residual = 0.000269431, No Iterations 67
time step continuity errors : sum local = 3.25012e-08, global = -5.82856e-20, cumulative = 9.68954e-21
DICPCG:  Solving for p, Initial residual = 0.00309997, Final residual = 9.08642e-07, No Iterations 221
time step continuity errors : sum local = 1.08865e-10, global = 2.26898e-20, cumulative = 3.23794e-20
ExecutionTime = 12.99 s  ClockTime = 13 s

Time = 0.050625

Courant Number mean: 0.071977 max: 0.938804
smoothSolver:  Solving for Ux, Initial residual = 0.00261148, Final residual = 8.07591e-06, No Iterations 3
smoothSolver:  Solving for Uy, Initial residual = 0.00331447, Final residual = 1.62606e-06, No Iterations 4
DICPCG:  Solving for p, Initial residual = 0.00544011, Final residual = 0.000267938, No Iterations 67
time step continuity errors : sum local = 3.23651e-08, global = -6.92748e-20, cumulative = -3.68954e-20
DICPCG:  Solving for p, Initial residual = 0.00307975, Final residual = 9.00537e-07, No Iterations 221
time step continuity errors : sum local = 1.08e-10, global = 7.99692e-21, cumulative = -2.88985e-20
ExecutionTime = 13.13 s  ClockTime = 13 s

Time = 0.05125

Courant Number mean: 0.0723254 max: 0.939232
smoothSolver:  Solving for Ux, Initial residual = 0.00257864, Final residual = 7.97649e-06, No Iterations 3
smoothSolver:  Solving for Uy, Initial residual = 0.0032819, Final residual = 1.6088e-06, No Iterations 4
DICPCG:  Solving for p, Initial residual = 0.00540706, Final residual = 0.000265168, No Iterations 67
time step continuity errors : sum local = 3.20554e-08, global = -2.75062e-20, cumulative = -5.64046e-20
DICPCG:  Solving for p, Initial residual = 0.00305922, Final residual = 8.92479e-07, No Iterations 221
time step continuity errors : sum local = 1.07133e-10, global = 2.56118e-20, cumulative = -3.07929e-20
ExecutionTime = 13.28 s  ClockTime = 13 s

Time = 0.051875

Courant Number mean: 0.0726705 max: 0.939652
smoothSolver:  Solving for Ux, Initial residual = 0.00254657, Final residual = 7.87897e-06, No Iterations 3
smoothSolver:  Solving for Uy, Initial residual = 0.00325028, Final residual = 1.59202e-06, No Iterations 4
DICPCG:  Solving for p, Initial residual = 0.00537207, Final residual = 0.00026277, No Iterations 67
time step continuity errors : sum local = 3.18033e-08, global = 4.60258e-21, cumulative = -2.61903e-20
DICPCG:  Solving for p, Initial residual = 0.00303918, Final residual = 8.86383e-07, No Iterations 221
time step continuity errors : sum local = 1.06496e-10, global = 2.97345e-20, cumulative = 3.5442e-21
ExecutionTime = 13.42 s  ClockTime = 14 s

Time = 0.0525

Courant Number mean: 0.0730126 max: 0.940064
smoothSolver:  Solving for Ux, Initial residual = 0.00251522, Final residual = 7.78327e-06, No Iterations 3
smoothSolver:  Solving for Uy, Initial residual = 0.00321953, Final residual = 1.57565e-06, No Iterations 4
DICPCG:  Solving for p, Initial residual = 0.0053358, Final residual = 0.000260336, No Iterations 67
time step continuity errors : sum local = 3.15354e-08, global = 7.2081e-20, cumulative = 7.56252e-20
DICPCG:  Solving for p, Initial residual = 0.00302106, Final residual = 8.80738e-07, No Iterations 221
time step continuity errors : sum local = 1.05914e-10, global = 4.50941e-20, cumulative = 1.20719e-19
ExecutionTime = 13.56 s  ClockTime = 14 s

Time = 0.053125

Courant Number mean: 0.0733514 max: 0.940468
smoothSolver:  Solving for Ux, Initial residual = 0.00248457, Final residual = 7.68932e-06, No Iterations 3
smoothSolver:  Solving for Uy, Initial residual = 0.00318961, Final residual = 1.55975e-06, No Iterations 4
DICPCG:  Solving for p, Initial residual = 0.0053021, Final residual = 0.000257272, No Iterations 67
time step continuity errors : sum local = 3.11994e-08, global = -3.5215e-20, cumulative = 8.55042e-20
DICPCG:  Solving for p, Initial residual = 0.00300031, Final residual = 8.79426e-07, No Iterations 221
time step continuity errors : sum local = 1.05854e-10, global = -3.29149e-20, cumulative = 5.25893e-20
ExecutionTime = 13.7 s  ClockTime = 14 s

Time = 0.05375

Courant Number mean: 0.0736871 max: 0.940865
smoothSolver:  Solving for Ux, Initial residual = 0.00245464, Final residual = 7.59768e-06, No Iterations 3
smoothSolver:  Solving for Uy, Initial residual = 0.0031605, Final residual = 1.54426e-06, No Iterations 4
DICPCG:  Solving for p, Initial residual = 0.00527305, Final residual = 0.000255126, No Iterations 67
time step continuity errors : sum local = 3.09671e-08, global = -1.91991e-20, cumulative = 3.33902e-20
DICPCG:  Solving for p, Initial residual = 0.00298581, Final residual = 8.76259e-07, No Iterations 221
time step continuity errors : sum local = 1.05574e-10, global = 3.72991e-20, cumulative = 7.06893e-20
ExecutionTime = 13.84 s  ClockTime = 14 s

Time = 0.054375

Courant Number mean: 0.0740195 max: 0.941253
smoothSolver:  Solving for Ux, Initial residual = 0.00242542, Final residual = 7.50938e-06, No Iterations 3
smoothSolver:  Solving for Uy, Initial residual = 0.00313204, Final residual = 1.52918e-06, No Iterations 4
DICPCG:  Solving for p, Initial residual = 0.00523806, Final residual = 0.000252793, No Iterations 67
time step continuity errors : sum local = 3.07165e-08, global = -4.63399e-21, cumulative = 6.60553e-20
DICPCG:  Solving for p, Initial residual = 0.00296648, Final residual = 8.72907e-07, No Iterations 221
time step continuity errors : sum local = 1.05267e-10, global = -2.82352e-20, cumulative = 3.782e-20
ExecutionTime = 13.99 s  ClockTime = 14 s

Time = 0.055

Courant Number mean: 0.074349 max: 0.941635
smoothSolver:  Solving for Ux, Initial residual = 0.00239688, Final residual = 7.42332e-06, No Iterations 3
smoothSolver:  Solving for Uy, Initial residual = 0.00310434, Final residual = 1.51446e-06, No Iterations 4
DICPCG:  Solving for p, Initial residual = 0.00520889, Final residual = 0.000250502, No Iterations 67
time step continuity errors : sum local = 3.04662e-08, global = 6.62097e-20, cumulative = 1.0403e-19
DICPCG:  Solving for p, Initial residual = 0.00295237, Final residual = 8.7231e-07, No Iterations 221
time step continuity errors : sum local = 1.05292e-10, global = 1.05479e-20, cumulative = 1.14578e-19
ExecutionTime = 14.14 s  ClockTime = 14 s

Time = 0.055625

Courant Number mean: 0.0746754 max: 0.942009
smoothSolver:  Solving for Ux, Initial residual = 0.00236905, Final residual = 7.33937e-06, No Iterations 3
smoothSolver:  Solving for Uy, Initial residual = 0.0030773, Final residual = 1.50012e-06, No Iterations 4
DICPCG:  Solving for p, Initial residual = 0.00517894, Final residual = 0.000249129, No Iterations 67
time step continuity errors : sum local = 3.03294e-08, global = -1.27742e-20, cumulative = 1.01803e-19
DICPCG:  Solving for p, Initial residual = 0.00293335, Final residual = 8.72195e-07, No Iterations 221
time step continuity errors : sum local = 1.05375e-10, global = 3.00321e-21, cumulative = 1.04807e-19
ExecutionTime = 14.28 s  ClockTime = 14 s

Time = 0.05625

Courant Number mean: 0.0749986 max: 0.942376
smoothSolver:  Solving for Ux, Initial residual = 0.00234207, Final residual = 7.25718e-06, No Iterations 3
smoothSolver:  Solving for Uy, Initial residual = 0.00305089, Final residual = 9.96591e-06, No Iterations 3
DICPCG:  Solving for p, Initial residual = 0.00513533, Final residual = 0.000246318, No Iterations 67
time step continuity errors : sum local = 2.99537e-08, global = -1.37465e-20, cumulative = 9.10601e-20
DICPCG:  Solving for p, Initial residual = 0.00289732, Final residual = 8.97577e-07, No Iterations 221
time step continuity errors : sum local = 1.08596e-10, global = -8.90037e-20, cumulative = 2.05645e-21
ExecutionTime = 14.42 s  ClockTime = 15 s

Time = 0.056875

Courant Number mean: 0.0753191 max: 0.942735
smoothSolver:  Solving for Ux, Initial residual = 0.00231573, Final residual = 7.17671e-06, No Iterations 3
smoothSolver:  Solving for Uy, Initial residual = 0.00302521, Final residual = 9.87622e-06, No Iterations 3
DICPCG:  Solving for p, Initial residual = 0.00510473, Final residual = 0.000245584, No Iterations 67
time step continuity errors : sum local = 2.99254e-08, global = -5.01905e-20, cumulative = -4.8134e-20
DICPCG:  Solving for p, Initial residual = 0.00287881, Final residual = 8.98509e-07, No Iterations 221
time step continuity errors : sum local = 1.08809e-10, global = -3.87051e-20, cumulative = -8.68391e-20
ExecutionTime = 14.57 s  ClockTime = 15 s

Time = 0.0575

Courant Number mean: 0.0756367 max: 0.94309
smoothSolver:  Solving for Ux, Initial residual = 0.00228987, Final residual = 7.0975e-06, No Iterations 3
smoothSolver:  Solving for Uy, Initial residual = 0.00300008, Final residual = 9.78848e-06, No Iterations 3
DICPCG:  Solving for p, Initial residual = 0.00507474, Final residual = 0.000243474, No Iterations 67
time step continuity errors : sum local = 2.96721e-08, global = -6.99737e-20, cumulative = -1.56813e-19
DICPCG:  Solving for p, Initial residual = 0.00286235, Final residual = 8.99512e-07, No Iterations 221
time step continuity errors : sum local = 1.09034e-10, global = 7.63997e-21, cumulative = -1.49173e-19
ExecutionTime = 14.71 s  ClockTime = 15 s

Time = 0.058125

Courant Number mean: 0.0759514 max: 0.943442
smoothSolver:  Solving for Ux, Initial residual = 0.00226463, Final residual = 7.02042e-06, No Iterations 3
smoothSolver:  Solving for Uy, Initial residual = 0.00297558, Final residual = 9.70313e-06, No Iterations 3
DICPCG:  Solving for p, Initial residual = 0.00504339, Final residual = 0.000241192, No Iterations 67
time step continuity errors : sum local = 2.94383e-08, global = -6.47501e-20, cumulative = -2.13923e-19
DICPCG:  Solving for p, Initial residual = 0.00284583, Final residual = 9.03931e-07, No Iterations 221
time step continuity errors : sum local = 1.09667e-10, global = -1.80022e-20, cumulative = -2.31925e-19
ExecutionTime = 14.85 s  ClockTime = 15 s

Time = 0.05875

Courant Number mean: 0.0762646 max: 0.943787
smoothSolver:  Solving for Ux, Initial residual = 0.00224002, Final residual = 6.94595e-06, No Iterations 3
smoothSolver:  Solving for Uy, Initial residual = 0.00295167, Final residual = 9.61969e-06, No Iterations 3
DICPCG:  Solving for p, Initial residual = 0.00501663, Final residual = 0.000250799, No Iterations 66
time step continuity errors : sum local = 3.06166e-08, global = 3.68342e-20, cumulative = -1.95091e-19
DICPCG:  Solving for p, Initial residual = 0.00282637, Final residual = 9.08106e-07, No Iterations 221
time step continuity errors : sum local = 1.10268e-10, global = 4.84084e-20, cumulative = -1.46683e-19
ExecutionTime = 14.99 s  ClockTime = 15 s

Time = 0.059375

Courant Number mean: 0.076576 max: 0.944126
smoothSolver:  Solving for Ux, Initial residual = 0.00221583, Final residual = 6.8726e-06, No Iterations 3
smoothSolver:  Solving for Uy, Initial residual = 0.00292841, Final residual = 9.53848e-06, No Iterations 3
DICPCG:  Solving for p, Initial residual = 0.00499555, Final residual = 0.000236336, No Iterations 67
time step continuity errors : sum local = 2.8894e-08, global = 2.87087e-20, cumulative = -1.17974e-19
DICPCG:  Solving for p, Initial residual = 0.002803, Final residual = 9.1223e-07, No Iterations 221
time step continuity errors : sum local = 1.10863e-10, global = -5.45004e-20, cumulative = -1.72474e-19
ExecutionTime = 15.13 s  ClockTime = 15 s

Time = 0.06

Courant Number mean: 0.0768852 max: 0.944458
smoothSolver:  Solving for Ux, Initial residual = 0.00219221, Final residual = 6.80077e-06, No Iterations 3
smoothSolver:  Solving for Uy, Initial residual = 0.00290555, Final residual = 9.45871e-06, No Iterations 3
DICPCG:  Solving for p, Initial residual = 0.00496039, Final residual = 0.000235, No Iterations 67
time step continuity errors : sum local = 2.87442e-08, global = 4.38569e-20, cumulative = -1.28618e-19
DICPCG:  Solving for p, Initial residual = 0.00280378, Final residual = 9.14826e-07, No Iterations 221
time step continuity errors : sum local = 1.11273e-10, global = -4.56876e-20, cumulative = -1.74305e-19
ExecutionTime = 15.28 s  ClockTime = 15 s

Time = 0.060625

Courant Number mean: 0.0771919 max: 0.944785
smoothSolver:  Solving for Ux, Initial residual = 0.00216894, Final residual = 6.72989e-06, No Iterations 3
smoothSolver:  Solving for Uy, Initial residual = 0.00288331, Final residual = 9.38097e-06, No Iterations 3
DICPCG:  Solving for p, Initial residual = 0.00493502, Final residual = 0.000246484, No Iterations 66
time step continuity errors : sum local = 3.01763e-08, global = 4.34917e-20, cumulative = -1.30813e-19
DICPCG:  Solving for p, Initial residual = 0.00278233, Final residual = 9.21218e-07, No Iterations 221
time step continuity errors : sum local = 1.12141e-10, global = 4.38434e-20, cumulative = -8.69701e-20
ExecutionTime = 15.42 s  ClockTime = 16 s

Time = 0.06125

Courant Number mean: 0.0774965 max: 0.945106
smoothSolver:  Solving for Ux, Initial residual = 0.0021462, Final residual = 6.66021e-06, No Iterations 3
smoothSolver:  Solving for Uy, Initial residual = 0.0028615, Final residual = 9.30483e-06, No Iterations 3
DICPCG:  Solving for p, Initial residual = 0.00491702, Final residual = 0.000244609, No Iterations 66
time step continuity errors : sum local = 2.99665e-08, global = 3.42315e-20, cumulative = -5.27386e-20
DICPCG:  Solving for p, Initial residual = 0.00279159, Final residual = 9.31557e-07, No Iterations 221
time step continuity errors : sum local = 1.13497e-10, global = -5.47829e-20, cumulative = -1.07521e-19
ExecutionTime = 15.56 s  ClockTime = 16 s

Time = 0.061875

Courant Number mean: 0.0777987 max: 0.945421
smoothSolver:  Solving for Ux, Initial residual = 0.00212405, Final residual = 6.59225e-06, No Iterations 3
smoothSolver:  Solving for Uy, Initial residual = 0.00284008, Final residual = 9.23028e-06, No Iterations 3
DICPCG:  Solving for p, Initial residual = 0.00488907, Final residual = 0.000243577, No Iterations 66
time step continuity errors : sum local = 2.98686e-08, global = 5.48555e-20, cumulative = -5.2666e-20
DICPCG:  Solving for p, Initial residual = 0.00277614, Final residual = 9.37024e-07, No Iterations 221
time step continuity errors : sum local = 1.1426e-10, global = -6.30963e-20, cumulative = -1.15762e-19
ExecutionTime = 15.7 s  ClockTime = 16 s

Time = 0.0625

Courant Number mean: 0.0780983 max: 0.94573
smoothSolver:  Solving for Ux, Initial residual = 0.0021024, Final residual = 6.52635e-06, No Iterations 3
smoothSolver:  Solving for Uy, Initial residual = 0.00281917, Final residual = 9.15755e-06, No Iterations 3
DICPCG:  Solving for p, Initial residual = 0.00486411, Final residual = 0.000242378, No Iterations 66
time step continuity errors : sum local = 2.97444e-08, global = 3.61564e-20, cumulative = -7.96059e-20
DICPCG:  Solving for p, Initial residual = 0.00276073, Final residual = 9.41006e-07, No Iterations 221
time step continuity errors : sum local = 1.1484e-10, global = -8.91699e-20, cumulative = -1.68776e-19
ExecutionTime = 15.91 s  ClockTime = 16 s

Time = 0.063125

Courant Number mean: 0.0783958 max: 0.946033
smoothSolver:  Solving for Ux, Initial residual = 0.00208136, Final residual = 6.46237e-06, No Iterations 3
smoothSolver:  Solving for Uy, Initial residual = 0.00279869, Final residual = 9.08627e-06, No Iterations 3
DICPCG:  Solving for p, Initial residual = 0.00483783, Final residual = 0.000241069, No Iterations 66
time step continuity errors : sum local = 2.96104e-08, global = -1.63333e-20, cumulative = -1.85109e-19
DICPCG:  Solving for p, Initial residual = 0.00274687, Final residual = 9.4685e-07, No Iterations 221
time step continuity errors : sum local = 1.15646e-10, global = -1.37706e-20, cumulative = -1.9888e-19
ExecutionTime = 16.05 s  ClockTime = 16 s

Time = 0.06375

Courant Number mean: 0.0786911 max: 0.946331
smoothSolver:  Solving for Ux, Initial residual = 0.00206075, Final residual = 6.39983e-06, No Iterations 3
smoothSolver:  Solving for Uy, Initial residual = 0.00277864, Final residual = 9.01657e-06, No Iterations 3
DICPCG:  Solving for p, Initial residual = 0.00481309, Final residual = 0.000238588, No Iterations 66
time step continuity errors : sum local = 2.93288e-08, global = -9.1334e-21, cumulative = -2.08013e-19
DICPCG:  Solving for p, Initial residual = 0.00273192, Final residual = 9.51417e-07, No Iterations 221
time step continuity errors : sum local = 1.16293e-10, global = -7.04839e-20, cumulative = -2.78497e-19
ExecutionTime = 16.19 s  ClockTime = 16 s

Time = 0.064375

Courant Number mean: 0.0789843 max: 0.946624
smoothSolver:  Solving for Ux, Initial residual = 0.00204047, Final residual = 6.33803e-06, No Iterations 3
smoothSolver:  Solving for Uy, Initial residual = 0.00275902, Final residual = 8.94826e-06, No Iterations 3
DICPCG:  Solving for p, Initial residual = 0.00478806, Final residual = 0.000237399, No Iterations 66
time step continuity errors : sum local = 2.92067e-08, global = 3.2277e-20, cumulative = -2.4622e-19
DICPCG:  Solving for p, Initial residual = 0.00271942, Final residual = 9.5772e-07, No Iterations 221
time step continuity errors : sum local = 1.17152e-10, global = 5.13207e-20, cumulative = -1.94899e-19
ExecutionTime = 16.33 s  ClockTime = 16 s

Time = 0.065

Courant Number mean: 0.0792762 max: 0.946913
smoothSolver:  Solving for Ux, Initial residual = 0.00202044, Final residual = 6.27686e-06, No Iterations 3
smoothSolver:  Solving for Uy, Initial residual = 0.00273983, Final residual = 8.88142e-06, No Iterations 3
DICPCG:  Solving for p, Initial residual = 0.00476319, Final residual = 0.000235496, No Iterations 66
time step continuity errors : sum local = 2.89946e-08, global = -4.67243e-20, cumulative = -2.41624e-19
DICPCG:  Solving for p, Initial residual = 0.00270567, Final residual = 9.6462e-07, No Iterations 221
time step continuity errors : sum local = 1.18084e-10, global = 1.13296e-19, cumulative = -1.28327e-19
ExecutionTime = 16.47 s  ClockTime = 17 s

Time = 0.065625

Courant Number mean: 0.0795664 max: 0.947201
smoothSolver:  Solving for Ux, Initial residual = 0.00200072, Final residual = 6.2164e-06, No Iterations 3
smoothSolver:  Solving for Uy, Initial residual = 0.002721, Final residual = 8.8161e-06, No Iterations 3
DICPCG:  Solving for p, Initial residual = 0.00476491, Final residual = 0.00023625, No Iterations 66
time step continuity errors : sum local = 2.91093e-08, global = 2.3067e-20, cumulative = -1.0526e-19
DICPCG:  Solving for p, Initial residual = 0.00269799, Final residual = 9.69556e-07, No Iterations 221
time step continuity errors : sum local = 1.18776e-10, global = 5.76948e-20, cumulative = -4.75654e-20
ExecutionTime = 16.62 s  ClockTime = 17 s

Time = 0.06625

Courant Number mean: 0.0798542 max: 0.947484
smoothSolver:  Solving for Ux, Initial residual = 0.00198147, Final residual = 6.15734e-06, No Iterations 3
smoothSolver:  Solving for Uy, Initial residual = 0.00270265, Final residual = 8.75219e-06, No Iterations 3
DICPCG:  Solving for p, Initial residual = 0.00475254, Final residual = 0.000231955, No Iterations 66
time step continuity errors : sum local = 2.86028e-08, global = -3.91903e-20, cumulative = -8.67557e-20
DICPCG:  Solving for p, Initial residual = 0.00268785, Final residual = 9.73226e-07, No Iterations 221
time step continuity errors : sum local = 1.19311e-10, global = -5.42301e-21, cumulative = -9.21787e-20
ExecutionTime = 16.76 s  ClockTime = 17 s

Time = 0.066875

Courant Number mean: 0.0801399 max: 0.947762
smoothSolver:  Solving for Ux, Initial residual = 0.00196274, Final residual = 6.10016e-06, No Iterations 3
smoothSolver:  Solving for Uy, Initial residual = 0.00268457, Final residual = 8.68943e-06, No Iterations 3
DICPCG:  Solving for p, Initial residual = 0.00474229, Final residual = 0.000232092, No Iterations 66
time step continuity errors : sum local = 2.86411e-08, global = -5.34187e-20, cumulative = -1.45597e-19
DICPCG:  Solving for p, Initial residual = 0.00267638, Final residual = 9.84066e-07, No Iterations 221
time step continuity errors : sum local = 1.20729e-10, global = -5.31062e-20, cumulative = -1.98704e-19
ExecutionTime = 16.9 s  ClockTime = 17 s

Time = 0.0675

Courant Number mean: 0.0804232 max: 0.948035
smoothSolver:  Solving for Ux, Initial residual = 0.00194466, Final residual = 6.04465e-06, No Iterations 3
smoothSolver:  Solving for Uy, Initial residual = 0.0026668, Final residual = 8.62792e-06, No Iterations 3
DICPCG:  Solving for p, Initial residual = 0.00467039, Final residual = 0.000228794, No Iterations 66
time step continuity errors : sum local = 2.82569e-08, global = -4.20772e-20, cumulative = -2.40781e-19
DICPCG:  Solving for p, Initial residual = 0.00265414, Final residual = 9.84656e-07, No Iterations 221
time step continuity errors : sum local = 1.20902e-10, global = 2.13644e-21, cumulative = -2.38644e-19
ExecutionTime = 17.05 s  ClockTime = 17 s

Time = 0.068125

Courant Number mean: 0.0807045 max: 0.948304
smoothSolver:  Solving for Ux, Initial residual = 0.00192689, Final residual = 5.99072e-06, No Iterations 3
smoothSolver:  Solving for Uy, Initial residual = 0.00264941, Final residual = 8.56767e-06, No Iterations 3
[...]
time step continuity errors : sum local = 1.36675e-10, global = 6.68007e-20, cumulative = 2.2521e-18
ExecutionTime = 102.4 s  ClockTime = 103 s

Time = 0.48375

Courant Number mean: 0.179148 max: 0.964721
smoothSolver:  Solving for Ux, Initial residual = 0.000517734, Final residual = 1.67022e-06, No Iterations 3
smoothSolver:  Solving for Uy, Initial residual = 0.000517382, Final residual = 1.68054e-06, No Iterations 3
DICPCG:  Solving for p, Initial residual = 0.0009383, Final residual = 4.45268e-05, No Iterations 47
time step continuity errors : sum local = 6.20862e-09, global = -9.59635e-20, cumulative = 2.15614e-18
DICPCG:  Solving for p, Initial residual = 0.000533562, Final residual = 9.91717e-07, No Iterations 178
time step continuity errors : sum local = 1.37257e-10, global = 1.60806e-19, cumulative = 2.31694e-18
ExecutionTime = 102.51 s  ClockTime = 103 s

Time = 0.484375

Courant Number mean: 0.179253 max: 0.96472
smoothSolver:  Solving for Ux, Initial residual = 0.000516997, Final residual = 1.66782e-06, No Iterations 3
smoothSolver:  Solving for Uy, Initial residual = 0.000516631, Final residual = 1.67811e-06, No Iterations 3
DICPCG:  Solving for p, Initial residual = 0.000936447, Final residual = 4.40507e-05, No Iterations 47
time step continuity errors : sum local = 6.1433e-09, global = 3.34586e-20, cumulative = 2.3504e-18
DICPCG:  Solving for p, Initial residual = 0.000531567, Final residual = 8.2099e-07, No Iterations 179
time step continuity errors : sum local = 1.13704e-10, global = -1.23392e-19, cumulative = 2.22701e-18
ExecutionTime = 102.63 s  ClockTime = 103 s

Time = 0.485

Courant Number mean: 0.179357 max: 0.964719
smoothSolver:  Solving for Ux, Initial residual = 0.000516261, Final residual = 1.66542e-06, No Iterations 3
smoothSolver:  Solving for Uy, Initial residual = 0.000515882, Final residual = 1.67568e-06, No Iterations 3
DICPCG:  Solving for p, Initial residual = 0.00093458, Final residual = 4.52871e-05, No Iterations 47
time step continuity errors : sum local = 6.31503e-09, global = -1.10453e-19, cumulative = 2.11655e-18
DICPCG:  Solving for p, Initial residual = 0.000530959, Final residual = 8.21122e-07, No Iterations 179
time step continuity errors : sum local = 1.13727e-10, global = 8.36404e-20, cumulative = 2.2002e-18
ExecutionTime = 102.75 s  ClockTime = 103 s

Time = 0.485625

Courant Number mean: 0.179461 max: 0.964719
smoothSolver:  Solving for Ux, Initial residual = 0.000515527, Final residual = 1.66304e-06, No Iterations 3
smoothSolver:  Solving for Uy, Initial residual = 0.000515135, Final residual = 1.67326e-06, No Iterations 3
DICPCG:  Solving for p, Initial residual = 0.000932983, Final residual = 4.41098e-05, No Iterations 47
time step continuity errors : sum local = 6.15334e-09, global = 9.80144e-20, cumulative = 2.29821e-18
DICPCG:  Solving for p, Initial residual = 0.00053031, Final residual = 8.12317e-07, No Iterations 179
time step continuity errors : sum local = 1.12542e-10, global = -1.08053e-19, cumulative = 2.19016e-18
ExecutionTime = 102.86 s  ClockTime = 103 s

Time = 0.48625

Courant Number mean: 0.179565 max: 0.964718
smoothSolver:  Solving for Ux, Initial residual = 0.000514794, Final residual = 1.66065e-06, No Iterations 3
smoothSolver:  Solving for Uy, Initial residual = 0.000514388, Final residual = 1.67083e-06, No Iterations 3
DICPCG:  Solving for p, Initial residual = 0.000931389, Final residual = 4.48182e-05, No Iterations 47
time step continuity errors : sum local = 6.2517e-09, global = -1.61597e-19, cumulative = 2.02856e-18
DICPCG:  Solving for p, Initial residual = 0.000529556, Final residual = 9.96146e-07, No Iterations 178
time step continuity errors : sum local = 1.37899e-10, global = 6.39725e-20, cumulative = 2.09253e-18
ExecutionTime = 102.98 s  ClockTime = 103 s

Time = 0.486875

Courant Number mean: 0.179669 max: 0.964717
smoothSolver:  Solving for Ux, Initial residual = 0.000514062, Final residual = 1.65827e-06, No Iterations 3
smoothSolver:  Solving for Uy, Initial residual = 0.000513643, Final residual = 1.66843e-06, No Iterations 3
DICPCG:  Solving for p, Initial residual = 0.000929709, Final residual = 4.43157e-05, No Iterations 47
time step continuity errors : sum local = 6.18248e-09, global = -5.6326e-20, cumulative = 2.03621e-18
DICPCG:  Solving for p, Initial residual = 0.000528467, Final residual = 9.95024e-07, No Iterations 178
time step continuity errors : sum local = 1.37758e-10, global = -7.95161e-20, cumulative = 1.95669e-18
ExecutionTime = 103.09 s  ClockTime = 104 s

Time = 0.4875

Courant Number mean: 0.179773 max: 0.964716
smoothSolver:  Solving for Ux, Initial residual = 0.00051333, Final residual = 1.65589e-06, No Iterations 3
smoothSolver:  Solving for Uy, Initial residual = 0.0005129, Final residual = 1.66603e-06, No Iterations 3
DICPCG:  Solving for p, Initial residual = 0.000928052, Final residual = 4.47324e-05, No Iterations 47
time step continuity errors : sum local = 6.24073e-09, global = -3.15086e-20, cumulative = 1.92518e-18
DICPCG:  Solving for p, Initial residual = 0.000527618, Final residual = 9.89048e-07, No Iterations 178
time step continuity errors : sum local = 1.36929e-10, global = -8.14895e-20, cumulative = 1.84369e-18
ExecutionTime = 103.26 s  ClockTime = 104 s

Time = 0.488125

Courant Number mean: 0.179877 max: 0.964715
smoothSolver:  Solving for Ux, Initial residual = 0.0005126, Final residual = 1.65351e-06, No Iterations 3
smoothSolver:  Solving for Uy, Initial residual = 0.000512157, Final residual = 1.66364e-06, No Iterations 3
DICPCG:  Solving for p, Initial residual = 0.00092642, Final residual = 4.4252e-05, No Iterations 47
time step continuity errors : sum local = 6.17479e-09, global = -1.21235e-19, cumulative = 1.72246e-18
DICPCG:  Solving for p, Initial residual = 0.000526491, Final residual = 9.85203e-07, No Iterations 178
time step continuity errors : sum local = 1.36411e-10, global = -8.7118e-21, cumulative = 1.71375e-18
ExecutionTime = 103.37 s  ClockTime = 104 s

Time = 0.48875

Courant Number mean: 0.179981 max: 0.964714
smoothSolver:  Solving for Ux, Initial residual = 0.000511869, Final residual = 1.65115e-06, No Iterations 3
smoothSolver:  Solving for Uy, Initial residual = 0.000511415, Final residual = 1.66125e-06, No Iterations 3
DICPCG:  Solving for p, Initial residual = 0.000924877, Final residual = 4.47627e-05, No Iterations 47
time step continuity errors : sum local = 6.24569e-09, global = -1.12804e-19, cumulative = 1.60094e-18
DICPCG:  Solving for p, Initial residual = 0.000525525, Final residual = 9.85147e-07, No Iterations 178
time step continuity errors : sum local = 1.364e-10, global = -2.43507e-20, cumulative = 1.57659e-18
ExecutionTime = 103.49 s  ClockTime = 104 s

Time = 0.489375

Courant Number mean: 0.180084 max: 0.964713
smoothSolver:  Solving for Ux, Initial residual = 0.000511137, Final residual = 1.64878e-06, No Iterations 3
smoothSolver:  Solving for Uy, Initial residual = 0.000510677, Final residual = 1.65886e-06, No Iterations 3
DICPCG:  Solving for p, Initial residual = 0.000923263, Final residual = 4.37188e-05, No Iterations 47
time step continuity errors : sum local = 6.10178e-09, global = 5.29237e-20, cumulative = 1.62951e-18
DICPCG:  Solving for p, Initial residual = 0.00052442, Final residual = 9.82611e-07, No Iterations 178
time step continuity errors : sum local = 1.3606e-10, global = -6.10762e-20, cumulative = 1.56844e-18
ExecutionTime = 103.6 s  ClockTime = 104 s

Time = 0.49

Courant Number mean: 0.180188 max: 0.964713
smoothSolver:  Solving for Ux, Initial residual = 0.000510405, Final residual = 1.64641e-06, No Iterations 3
smoothSolver:  Solving for Uy, Initial residual = 0.000509942, Final residual = 1.65649e-06, No Iterations 3
DICPCG:  Solving for p, Initial residual = 0.000921555, Final residual = 4.42506e-05, No Iterations 47
time step continuity errors : sum local = 6.17644e-09, global = 1.47188e-19, cumulative = 1.71563e-18
DICPCG:  Solving for p, Initial residual = 0.000524018, Final residual = 9.77578e-07, No Iterations 178
time step continuity errors : sum local = 1.35369e-10, global = -1.69905e-20, cumulative = 1.69863e-18
ExecutionTime = 103.72 s  ClockTime = 104 s

Time = 0.490625

Courant Number mean: 0.180291 max: 0.964712
smoothSolver:  Solving for Ux, Initial residual = 0.000509674, Final residual = 1.64404e-06, No Iterations 3
smoothSolver:  Solving for Uy, Initial residual = 0.000509208, Final residual = 1.65412e-06, No Iterations 3
DICPCG:  Solving for p, Initial residual = 0.000920109, Final residual = 4.39604e-05, No Iterations 47
time step continuity errors : sum local = 6.13613e-09, global = -7.91739e-20, cumulative = 1.61946e-18
DICPCG:  Solving for p, Initial residual = 0.000521887, Final residual = 8.05816e-07, No Iterations 179
time step continuity errors : sum local = 1.11634e-10, global = -4.0473e-20, cumulative = 1.57899e-18
ExecutionTime = 103.83 s  ClockTime = 104 s

Time = 0.49125

Courant Number mean: 0.180395 max: 0.964711
smoothSolver:  Solving for Ux, Initial residual = 0.000508944, Final residual = 1.64167e-06, No Iterations 3
smoothSolver:  Solving for Uy, Initial residual = 0.000508476, Final residual = 1.65174e-06, No Iterations 3
DICPCG:  Solving for p, Initial residual = 0.000918681, Final residual = 4.46071e-05, No Iterations 47
time step continuity errors : sum local = 6.22607e-09, global = 1.24275e-19, cumulative = 1.70326e-18
DICPCG:  Solving for p, Initial residual = 0.000521328, Final residual = 9.9783e-07, No Iterations 178
time step continuity errors : sum local = 1.38173e-10, global = 1.60636e-20, cumulative = 1.71933e-18
ExecutionTime = 103.95 s  ClockTime = 104 s

Time = 0.491875

Courant Number mean: 0.180498 max: 0.96471
smoothSolver:  Solving for Ux, Initial residual = 0.000508214, Final residual = 1.63931e-06, No Iterations 3
smoothSolver:  Solving for Uy, Initial residual = 0.000507746, Final residual = 1.64938e-06, No Iterations 3
DICPCG:  Solving for p, Initial residual = 0.000916765, Final residual = 4.28484e-05, No Iterations 47
time step continuity errors : sum local = 5.98392e-09, global = -1.08132e-20, cumulative = 1.70851e-18
DICPCG:  Solving for p, Initial residual = 0.000520993, Final residual = 9.70391e-07, No Iterations 178
time step continuity errors : sum local = 1.34399e-10, global = 1.0693e-19, cumulative = 1.81544e-18
ExecutionTime = 104.07 s  ClockTime = 105 s

Time = 0.4925

Courant Number mean: 0.180602 max: 0.964709
smoothSolver:  Solving for Ux, Initial residual = 0.000507485, Final residual = 1.63695e-06, No Iterations 3
smoothSolver:  Solving for Uy, Initial residual = 0.000507016, Final residual = 1.64702e-06, No Iterations 3
DICPCG:  Solving for p, Initial residual = 0.000915723, Final residual = 4.30562e-05, No Iterations 47
time step continuity errors : sum local = 6.01209e-09, global = -1.44906e-20, cumulative = 1.80095e-18
DICPCG:  Solving for p, Initial residual = 0.00052007, Final residual = 9.4616e-07, No Iterations 178
time step continuity errors : sum local = 1.31028e-10, global = -1.11585e-19, cumulative = 1.68937e-18
ExecutionTime = 104.18 s  ClockTime = 105 s

Time = 0.493125

Courant Number mean: 0.180705 max: 0.964709
smoothSolver:  Solving for Ux, Initial residual = 0.000506756, Final residual = 1.63459e-06, No Iterations 3
smoothSolver:  Solving for Uy, Initial residual = 0.000506287, Final residual = 1.64465e-06, No Iterations 3
DICPCG:  Solving for p, Initial residual = 0.000913872, Final residual = 4.2553e-05, No Iterations 47
time step continuity errors : sum local = 5.94366e-09, global = 4.04388e-20, cumulative = 1.72981e-18
DICPCG:  Solving for p, Initial residual = 0.000519163, Final residual = 9.48485e-07, No Iterations 178
time step continuity errors : sum local = 1.31381e-10, global = 2.72072e-20, cumulative = 1.75701e-18
ExecutionTime = 104.29 s  ClockTime = 105 s

Time = 0.49375

Courant Number mean: 0.180808 max: 0.964708
smoothSolver:  Solving for Ux, Initial residual = 0.000506027, Final residual = 1.63223e-06, No Iterations 3
smoothSolver:  Solving for Uy, Initial residual = 0.000505558, Final residual = 1.64229e-06, No Iterations 3
DICPCG:  Solving for p, Initial residual = 0.000912001, Final residual = 4.28998e-05, No Iterations 47
time step continuity errors : sum local = 5.99218e-09, global = -7.82058e-20, cumulative = 1.67881e-18
DICPCG:  Solving for p, Initial residual = 0.000518349, Final residual = 9.43135e-07, No Iterations 178
time step continuity errors : sum local = 1.3063e-10, global = -1.29802e-19, cumulative = 1.54901e-18
ExecutionTime = 104.41 s  ClockTime = 105 s

Time = 0.494375

Courant Number mean: 0.180911 max: 0.964707
smoothSolver:  Solving for Ux, Initial residual = 0.000505299, Final residual = 1.62987e-06, No Iterations 3
smoothSolver:  Solving for Uy, Initial residual = 0.000504832, Final residual = 1.63994e-06, No Iterations 3
DICPCG:  Solving for p, Initial residual = 0.000910175, Final residual = 4.378e-05, No Iterations 47
time step continuity errors : sum local = 6.11442e-09, global = 7.07752e-20, cumulative = 1.61978e-18
DICPCG:  Solving for p, Initial residual = 0.000517023, Final residual = 9.73021e-07, No Iterations 178
time step continuity errors : sum local = 1.34783e-10, global = 6.98201e-20, cumulative = 1.6896e-18
ExecutionTime = 104.52 s  ClockTime = 105 s

Time = 0.495

Courant Number mean: 0.181014 max: 0.964706
smoothSolver:  Solving for Ux, Initial residual = 0.000504575, Final residual = 1.62753e-06, No Iterations 3
smoothSolver:  Solving for Uy, Initial residual = 0.000504108, Final residual = 1.63759e-06, No Iterations 3
DICPCG:  Solving for p, Initial residual = 0.000908525, Final residual = 4.44696e-05, No Iterations 47
time step continuity errors : sum local = 6.21073e-09, global = -1.31872e-19, cumulative = 1.55773e-18
DICPCG:  Solving for p, Initial residual = 0.000516472, Final residual = 9.74475e-07, No Iterations 178
time step continuity errors : sum local = 1.34984e-10, global = 3.82574e-20, cumulative = 1.59599e-18
ExecutionTime = 104.64 s  ClockTime = 105 s

Time = 0.495625

Courant Number mean: 0.181117 max: 0.964706
smoothSolver:  Solving for Ux, Initial residual = 0.000503854, Final residual = 1.62517e-06, No Iterations 3
smoothSolver:  Solving for Uy, Initial residual = 0.000503385, Final residual = 1.63525e-06, No Iterations 3
DICPCG:  Solving for p, Initial residual = 0.000906956, Final residual = 4.33982e-05, No Iterations 47
time step continuity errors : sum local = 6.06317e-09, global = -1.62373e-19, cumulative = 1.43361e-18
DICPCG:  Solving for p, Initial residual = 0.00051576, Final residual = 9.57834e-07, No Iterations 178
time step continuity errors : sum local = 1.32692e-10, global = 1.13969e-19, cumulative = 1.54758e-18
ExecutionTime = 104.75 s  ClockTime = 105 s

Time = 0.49625

Courant Number mean: 0.18122 max: 0.964705
smoothSolver:  Solving for Ux, Initial residual = 0.000503135, Final residual = 1.62282e-06, No Iterations 3
smoothSolver:  Solving for Uy, Initial residual = 0.000502659, Final residual = 1.6329e-06, No Iterations 3
DICPCG:  Solving for p, Initial residual = 0.000905311, Final residual = 4.41972e-05, No Iterations 47
time step continuity errors : sum local = 6.17454e-09, global = -8.24947e-21, cumulative = 1.53933e-18
DICPCG:  Solving for p, Initial residual = 0.00051512, Final residual = 9.53565e-07, No Iterations 178
time step continuity errors : sum local = 1.32102e-10, global = 2.84459e-20, cumulative = 1.56778e-18
ExecutionTime = 104.87 s  ClockTime = 105 s

Time = 0.496875

Courant Number mean: 0.181322 max: 0.964704
smoothSolver:  Solving for Ux, Initial residual = 0.000502415, Final residual = 1.62046e-06, No Iterations 3
smoothSolver:  Solving for Uy, Initial residual = 0.000501938, Final residual = 1.63055e-06, No Iterations 3
DICPCG:  Solving for p, Initial residual = 0.000903751, Final residual = 4.38509e-05, No Iterations 47
time step continuity errors : sum local = 6.12684e-09, global = 4.71974e-20, cumulative = 1.61498e-18
DICPCG:  Solving for p, Initial residual = 0.000514143, Final residual = 9.50497e-07, No Iterations 178
time step continuity errors : sum local = 1.31686e-10, global = 2.49473e-20, cumulative = 1.63992e-18
ExecutionTime = 104.98 s  ClockTime = 106 s

Time = 0.4975

Courant Number mean: 0.181425 max: 0.964703
smoothSolver:  Solving for Ux, Initial residual = 0.000501696, Final residual = 1.61811e-06, No Iterations 3
smoothSolver:  Solving for Uy, Initial residual = 0.000501217, Final residual = 1.62821e-06, No Iterations 3
DICPCG:  Solving for p, Initial residual = 0.000902171, Final residual = 4.4345e-05, No Iterations 47
time step continuity errors : sum local = 6.19578e-09, global = -2.15208e-20, cumulative = 1.6184e-18
DICPCG:  Solving for p, Initial residual = 0.000513491, Final residual = 9.47992e-07, No Iterations 178
time step continuity errors : sum local = 1.31341e-10, global = -3.1777e-20, cumulative = 1.58662e-18
ExecutionTime = 105.09 s  ClockTime = 106 s

Time = 0.498125

Courant Number mean: 0.181528 max: 0.964703
smoothSolver:  Solving for Ux, Initial residual = 0.000500977, Final residual = 1.61577e-06, No Iterations 3
smoothSolver:  Solving for Uy, Initial residual = 0.000500497, Final residual = 1.62587e-06, No Iterations 3
DICPCG:  Solving for p, Initial residual = 0.000900622, Final residual = 4.37781e-05, No Iterations 47
time step continuity errors : sum local = 6.11777e-09, global = -6.1193e-20, cumulative = 1.52543e-18
DICPCG:  Solving for p, Initial residual = 0.000512432, Final residual = 9.45566e-07, No Iterations 178
time step continuity errors : sum local = 1.31013e-10, global = -1.39225e-19, cumulative = 1.38621e-18
ExecutionTime = 105.21 s  ClockTime = 106 s

Time = 0.49875

Courant Number mean: 0.18163 max: 0.964702
smoothSolver:  Solving for Ux, Initial residual = 0.00050026, Final residual = 1.61343e-06, No Iterations 3
smoothSolver:  Solving for Uy, Initial residual = 0.000499778, Final residual = 1.62354e-06, No Iterations 3
DICPCG:  Solving for p, Initial residual = 0.000899101, Final residual = 4.4046e-05, No Iterations 47
time step continuity errors : sum local = 6.1553e-09, global = 8.66956e-20, cumulative = 1.4729e-18
DICPCG:  Solving for p, Initial residual = 0.000511723, Final residual = 9.39033e-07, No Iterations 178
time step continuity errors : sum local = 1.3011e-10, global = -3.56197e-20, cumulative = 1.43728e-18
ExecutionTime = 105.32 s  ClockTime = 106 s

Time = 0.499375

Courant Number mean: 0.181732 max: 0.964701
smoothSolver:  Solving for Ux, Initial residual = 0.000499541, Final residual = 1.61111e-06, No Iterations 3
smoothSolver:  Solving for Uy, Initial residual = 0.00049906, Final residual = 1.62123e-06, No Iterations 3
DICPCG:  Solving for p, Initial residual = 0.000897538, Final residual = 4.32523e-05, No Iterations 47
time step continuity errors : sum local = 6.04592e-09, global = 2.95483e-21, cumulative = 1.44024e-18
DICPCG:  Solving for p, Initial residual = 0.000510459, Final residual = 9.37116e-07, No Iterations 178
time step continuity errors : sum local = 1.29853e-10, global = -2.70439e-20, cumulative = 1.41319e-18
ExecutionTime = 105.44 s  ClockTime = 106 s

Time = 0.5

Courant Number mean: 0.181835 max: 0.9647
smoothSolver:  Solving for Ux, Initial residual = 0.000498825, Final residual = 1.60878e-06, No Iterations 3
smoothSolver:  Solving for Uy, Initial residual = 0.000498343, Final residual = 1.61891e-06, No Iterations 3
DICPCG:  Solving for p, Initial residual = 0.000896008, Final residual = 4.42338e-05, No Iterations 47
time step continuity errors : sum local = 6.18233e-09, global = -6.6909e-20, cumulative = 1.34629e-18
DICPCG:  Solving for p, Initial residual = 0.000509653, Final residual = 9.45839e-07, No Iterations 178
time step continuity errors : sum local = 1.31064e-10, global = -7.30692e-20, cumulative = 1.27322e-18
ExecutionTime = 105.62 s  ClockTime = 106 s

End

