/*---------------------------------------------------------------------------*\
  =========                 |
  \\      /  F ield         | OpenFOAM: The Open Source CFD Toolbox
   \\    /   O peration     | Website:  https://openfoam.org
    \\  /    A nd           | Version:  7
     \\/     M anipulation  |
\*---------------------------------------------------------------------------*/
Build  : 7
Exec   : icoFoam
Date   : Feb 21 2024
Time   : 15:48:42
Host   : "c201-030.frontera.tacc.utexas.edu"
PID    : 224139
I/O    : uncollated
Case   : /work2/09042/mihiro10/frontera/COE-347-SP24/mainclassrepo/OpenFOAM/v7/cavity/cavity_160x160
nProcs : 1
sigFpe : Enabling floating point exception trapping (FOAM_SIGFPE).
fileModificationChecking : Monitoring run-time modified files using timeStampMaster (fileModificationSkew 10)
allowSystemOperations : Allowing user-supplied system call operations

// * * * * * * * * * * * * * * * * * * * * * * * * * * * * * * * * * * * * * //
Create time

Create mesh for time = 0

Reading transportProperties

Reading field p

Reading field U

Reading/calculating face flux field phi


Starting time loop

Time = 0.000625

Courant Number mean: 0 max: 0
smoothSolver:  Solving for Ux, Initial residual = 1, Final residual = 9.96156e-06, No Iterations 125
smoothSolver:  Solving for Uy, Initial residual = 0, Final residual = 0, No Iterations 0
DICPCG:  Solving for p, Initial residual = 1, Final residual = 0.0475287, No Iterations 199
time step continuity errors : sum local = 1.47447e-05, global = -9.51258e-22, cumulative = -9.51258e-22
DICPCG:  Solving for p, Initial residual = 0.712662, Final residual = 8.16007e-07, No Iterations 283
time step continuity errors : sum local = 3.69875e-10, global = -2.78483e-21, cumulative = -3.73609e-21
ExecutionTime = 0.46 s  ClockTime = 0 s

Time = 0.00125

Courant Number mean: 0.0491385 max: 0.849466
smoothSolver:  Solving for Ux, Initial residual = 0.107717, Final residual = 9.7712e-06, No Iterations 133
smoothSolver:  Solving for Uy, Initial residual = 0.428628, Final residual = 9.93445e-06, No Iterations 157
DICPCG:  Solving for p, Initial residual = 0.842748, Final residual = 0.0414233, No Iterations 97
time step continuity errors : sum local = 3.10373e-05, global = -2.24528e-20, cumulative = -2.61889e-20
DICPCG:  Solving for p, Initial residual = 0.785201, Final residual = 8.98824e-07, No Iterations 279
time step continuity errors : sum local = 6.42204e-10, global = 2.39261e-20, cumulative = -2.26275e-21
ExecutionTime = 0.82 s  ClockTime = 0 s

Time = 0.001875

Courant Number mean: 0.0748073 max: 0.96555
smoothSolver:  Solving for Ux, Initial residual = 0.0615617, Final residual = 9.50192e-06, No Iterations 120
smoothSolver:  Solving for Uy, Initial residual = 0.290162, Final residual = 9.52664e-06, No Iterations 146
DICPCG:  Solving for p, Initial residual = 0.903605, Final residual = 0.0429141, No Iterations 187
time step continuity errors : sum local = 4.44437e-05, global = 4.64359e-20, cumulative = 4.41731e-20
DICPCG:  Solving for p, Initial residual = 0.628386, Final residual = 9.42625e-07, No Iterations 270
time step continuity errors : sum local = 1.35025e-09, global = -1.17936e-20, cumulative = 3.23795e-20
ExecutionTime = 1.2 s  ClockTime = 1 s

Time = 0.0025

Courant Number mean: 0.0891351 max: 0.94579
smoothSolver:  Solving for Ux, Initial residual = 0.0491702, Final residual = 9.85162e-06, No Iterations 119
smoothSolver:  Solving for Uy, Initial residual = 0.219628, Final residual = 9.75328e-06, No Iterations 140
DICPCG:  Solving for p, Initial residual = 0.883859, Final residual = 0.0407209, No Iterations 176
time step continuity errors : sum local = 4.60276e-05, global = 2.14944e-20, cumulative = 5.3874e-20
DICPCG:  Solving for p, Initial residual = 0.685799, Final residual = 9.77591e-07, No Iterations 274
time step continuity errors : sum local = 1.36518e-09, global = -1.87207e-20, cumulative = 3.51533e-20
ExecutionTime = 1.57 s  ClockTime = 1 s

Time = 0.003125

Courant Number mean: 0.1009 max: 0.966522
smoothSolver:  Solving for Ux, Initial residual = 0.0397413, Final residual = 9.59552e-06, No Iterations 115
smoothSolver:  Solving for Uy, Initial residual = 0.192266, Final residual = 9.44434e-06, No Iterations 144
DICPCG:  Solving for p, Initial residual = 0.904273, Final residual = 0.0421253, No Iterations 181
time step continuity errors : sum local = 4.59353e-05, global = 8.3131e-20, cumulative = 1.18284e-19
DICPCG:  Solving for p, Initial residual = 0.74466, Final residual = 8.57503e-07, No Iterations 273
time step continuity errors : sum local = 1.0965e-09, global = -2.2365e-20, cumulative = 9.59193e-20
ExecutionTime = 1.95 s  ClockTime = 2 s

Time = 0.00375

Courant Number mean: 0.109965 max: 0.960133
smoothSolver:  Solving for Ux, Initial residual = 0.0345915, Final residual = 9.67353e-06, No Iterations 119
smoothSolver:  Solving for Uy, Initial residual = 0.147129, Final residual = 9.62353e-06, No Iterations 136
DICPCG:  Solving for p, Initial residual = 0.863471, Final residual = 0.0403066, No Iterations 184
time step continuity errors : sum local = 3.98603e-05, global = -7.43429e-21, cumulative = 8.8485e-20
DICPCG:  Solving for p, Initial residual = 0.680461, Final residual = 8.5166e-07, No Iterations 271
time step continuity errors : sum local = 1.02651e-09, global = 1.88823e-20, cumulative = 1.07367e-19
ExecutionTime = 2.34 s  ClockTime = 2 s

Time = 0.004375

Courant Number mean: 0.118155 max: 0.970956
smoothSolver:  Solving for Ux, Initial residual = 0.0269589, Final residual = 9.3847e-06, No Iterations 109
smoothSolver:  Solving for Uy, Initial residual = 0.12069, Final residual = 9.77047e-06, No Iterations 134
DICPCG:  Solving for p, Initial residual = 0.878325, Final residual = 0.0436069, No Iterations 171
time step continuity errors : sum local = 3.8494e-05, global = -2.21374e-20, cumulative = 8.52298e-20
DICPCG:  Solving for p, Initial residual = 0.739753, Final residual = 9.71386e-07, No Iterations 268
time step continuity errors : sum local = 9.7733e-10, global = 7.95016e-20, cumulative = 1.64731e-19
ExecutionTime = 2.71 s  ClockTime = 2 s

Time = 0.005

Courant Number mean: 0.12466 max: 0.964495
smoothSolver:  Solving for Ux, Initial residual = 0.0301492, Final residual = 9.86533e-06, No Iterations 120
smoothSolver:  Solving for Uy, Initial residual = 0.100577, Final residual = 9.60489e-06, No Iterations 130
DICPCG:  Solving for p, Initial residual = 0.842808, Final residual = 0.0409729, No Iterations 178
time step continuity errors : sum local = 3.51357e-05, global = 1.73191e-20, cumulative = 1.82051e-19
DICPCG:  Solving for p, Initial residual = 0.686491, Final residual = 9.38987e-07, No Iterations 271
time step continuity errors : sum local = 9.57664e-10, global = -4.51933e-20, cumulative = 1.36857e-19
ExecutionTime = 3.08 s  ClockTime = 3 s

Time = 0.005625

Courant Number mean: 0.13087 max: 0.969343
smoothSolver:  Solving for Ux, Initial residual = 0.0219561, Final residual = 9.45135e-06, No Iterations 107
smoothSolver:  Solving for Uy, Initial residual = 0.0936988, Final residual = 9.58625e-06, No Iterations 132
DICPCG:  Solving for p, Initial residual = 0.852453, Final residual = 0.0410098, No Iterations 159
time step continuity errors : sum local = 3.07042e-05, global = 5.29396e-21, cumulative = 1.42151e-19
DICPCG:  Solving for p, Initial residual = 0.734955, Final residual = 9.26466e-07, No Iterations 272
time step continuity errors : sum local = 7.68904e-10, global = -2.41599e-20, cumulative = 1.17991e-19
ExecutionTime = 3.44 s  ClockTime = 3 s

Time = 0.00625

Courant Number mean: 0.136082 max: 0.968325
smoothSolver:  Solving for Ux, Initial residual = 0.016719, Final residual = 9.62451e-06, No Iterations 104
smoothSolver:  Solving for Uy, Initial residual = 0.122789, Final residual = 9.97751e-06, No Iterations 145
DICPCG:  Solving for p, Initial residual = 0.817049, Final residual = 0.0392704, No Iterations 165
time step continuity errors : sum local = 2.89009e-05, global = -3.53264e-20, cumulative = 8.26649e-20
DICPCG:  Solving for p, Initial residual = 0.70412, Final residual = 9.82424e-07, No Iterations 270
time step continuity errors : sum local = 8.03328e-10, global = 2.7384e-21, cumulative = 8.54033e-20
ExecutionTime = 3.81 s  ClockTime = 3 s

Time = 0.006875

Courant Number mean: 0.140906 max: 0.969731
smoothSolver:  Solving for Ux, Initial residual = 0.0146281, Final residual = 9.47855e-06, No Iterations 103
smoothSolver:  Solving for Uy, Initial residual = 0.0768439, Final residual = 9.81128e-06, No Iterations 131
DICPCG:  Solving for p, Initial residual = 0.814624, Final residual = 0.0405188, No Iterations 173
time step continuity errors : sum local = 2.6003e-05, global = 3.90429e-20, cumulative = 1.24446e-19
DICPCG:  Solving for p, Initial residual = 0.701937, Final residual = 9.97938e-07, No Iterations 266
time step continuity errors : sum local = 7.12954e-10, global = -1.02746e-19, cumulative = 2.17004e-20
ExecutionTime = 4.17 s  ClockTime = 4 s

Time = 0.0075

Courant Number mean: 0.145496 max: 0.971969
smoothSolver:  Solving for Ux, Initial residual = 0.0167806, Final residual = 9.59299e-06, No Iterations 111
smoothSolver:  Solving for Uy, Initial residual = 0.0511003, Final residual = 9.56092e-06, No Iterations 120
DICPCG:  Solving for p, Initial residual = 0.763723, Final residual = 0.0375573, No Iterations 183
time step continuity errors : sum local = 2.1346e-05, global = 7.95334e-20, cumulative = 1.01234e-19
DICPCG:  Solving for p, Initial residual = 0.638751, Final residual = 8.14911e-07, No Iterations 265
time step continuity errors : sum local = 5.29904e-10, global = 7.29525e-20, cumulative = 1.74186e-19
ExecutionTime = 4.53 s  ClockTime = 4 s

Time = 0.008125

Courant Number mean: 0.149608 max: 0.975522
smoothSolver:  Solving for Ux, Initial residual = 0.0122249, Final residual = 9.9666e-06, No Iterations 100
smoothSolver:  Solving for Uy, Initial residual = 0.0461285, Final residual = 9.60113e-06, No Iterations 120
DICPCG:  Solving for p, Initial residual = 0.761405, Final residual = 0.0355001, No Iterations 156
time step continuity errors : sum local = 1.84875e-05, global = 6.52219e-20, cumulative = 2.39408e-19
DICPCG:  Solving for p, Initial residual = 0.673779, Final residual = 9.51685e-07, No Iterations 269
time step continuity errors : sum local = 5.36459e-10, global = 8.24343e-20, cumulative = 3.21843e-19
ExecutionTime = 4.88 s  ClockTime = 5 s

Time = 0.00875

Courant Number mean: 0.153277 max: 0.971094
smoothSolver:  Solving for Ux, Initial residual = 0.0143565, Final residual = 9.63653e-06, No Iterations 109
smoothSolver:  Solving for Uy, Initial residual = 0.0471566, Final residual = 9.7097e-06, No Iterations 123
DICPCG:  Solving for p, Initial residual = 0.741968, Final residual = 0.0335044, No Iterations 175
time step continuity errors : sum local = 1.745e-05, global = -1.31832e-21, cumulative = 3.20524e-19
DICPCG:  Solving for p, Initial residual = 0.629644, Final residual = 8.76331e-07, No Iterations 268
time step continuity errors : sum local = 5.16694e-10, global = -3.62482e-20, cumulative = 2.84276e-19
ExecutionTime = 5.24 s  ClockTime = 5 s

Time = 0.009375

Courant Number mean: 0.156776 max: 0.975526
smoothSolver:  Solving for Ux, Initial residual = 0.0101838, Final residual = 9.97109e-06, No Iterations 96
smoothSolver:  Solving for Uy, Initial residual = 0.0404084, Final residual = 9.63401e-06, No Iterations 121
DICPCG:  Solving for p, Initial residual = 0.709482, Final residual = 0.0338192, No Iterations 161
time step continuity errors : sum local = 1.52326e-05, global = -6.55696e-20, cumulative = 2.18706e-19
DICPCG:  Solving for p, Initial residual = 0.629206, Final residual = 8.73995e-07, No Iterations 269
time step continuity errors : sum local = 4.24153e-10, global = -4.06593e-20, cumulative = 1.78047e-19
ExecutionTime = 5.59 s  ClockTime = 5 s

Time = 0.01

Courant Number mean: 0.159909 max: 0.973862
smoothSolver:  Solving for Ux, Initial residual = 0.00803828, Final residual = 9.91484e-06, No Iterations 96
smoothSolver:  Solving for Uy, Initial residual = 0.052936, Final residual = 9.80022e-06, No Iterations 133
DICPCG:  Solving for p, Initial residual = 0.679431, Final residual = 0.0332073, No Iterations 175
time step continuity errors : sum local = 1.40109e-05, global = 3.74997e-20, cumulative = 2.15547e-19
DICPCG:  Solving for p, Initial residual = 0.565211, Final residual = 9.55829e-07, No Iterations 265
time step continuity errors : sum local = 4.65247e-10, global = 2.65522e-21, cumulative = 2.18202e-19
ExecutionTime = 5.95 s  ClockTime = 6 s

Time = 0.010625

Courant Number mean: 0.162964 max: 0.976901
smoothSolver:  Solving for Ux, Initial residual = 0.00697692, Final residual = 9.46742e-06, No Iterations 94
smoothSolver:  Solving for Uy, Initial residual = 0.0296754, Final residual = 9.51392e-06, No Iterations 115
DICPCG:  Solving for p, Initial residual = 0.656847, Final residual = 0.0317045, No Iterations 86
time step continuity errors : sum local = 1.4215e-05, global = 7.5718e-20, cumulative = 2.9392e-19
DICPCG:  Solving for p, Initial residual = 0.631043, Final residual = 9.93413e-07, No Iterations 271
time step continuity errors : sum local = 3.8837e-10, global = 1.26411e-19, cumulative = 4.20331e-19
ExecutionTime = 6.26 s  ClockTime = 6 s

Time = 0.01125

Courant Number mean: 0.165687 max: 0.974181
smoothSolver:  Solving for Ux, Initial residual = 0.018333, Final residual = 9.53941e-06, No Iterations 114
smoothSolver:  Solving for Uy, Initial residual = 0.0666537, Final residual = 9.77452e-06, No Iterations 134
DICPCG:  Solving for p, Initial residual = 0.707407, Final residual = 0.0337148, No Iterations 158
time step continuity errors : sum local = 1.70308e-05, global = -1.62696e-20, cumulative = 4.04061e-19
DICPCG:  Solving for p, Initial residual = 0.36786, Final residual = 9.46008e-07, No Iterations 267
time step continuity errors : sum local = 8.91561e-10, global = 3.96768e-20, cumulative = 4.43738e-19
ExecutionTime = 6.61 s  ClockTime = 6 s

Time = 0.011875

Courant Number mean: 0.168968 max: 0.977806
smoothSolver:  Solving for Ux, Initial residual = 0.0140129, Final residual = 9.87459e-06, No Iterations 100
smoothSolver:  Solving for Uy, Initial residual = 0.058342, Final residual = 9.4513e-06, No Iterations 125
DICPCG:  Solving for p, Initial residual = 0.710894, Final residual = 0.0324865, No Iterations 160
time step continuity errors : sum local = 1.64267e-05, global = -5.48085e-20, cumulative = 3.88929e-19
DICPCG:  Solving for p, Initial residual = 0.46229, Final residual = 8.79328e-07, No Iterations 267
time step continuity errors : sum local = 6.50935e-10, global = 1.45272e-19, cumulative = 5.34201e-19
ExecutionTime = 6.96 s  ClockTime = 7 s

Time = 0.0125

Courant Number mean: 0.171036 max: 0.975884
smoothSolver:  Solving for Ux, Initial residual = 0.0122256, Final residual = 9.87977e-06, No Iterations 104
smoothSolver:  Solving for Uy, Initial residual = 0.0513697, Final residual = 9.57148e-06, No Iterations 129
DICPCG:  Solving for p, Initial residual = 0.698775, Final residual = 0.0329837, No Iterations 176
time step continuity errors : sum local = 1.5706e-05, global = 5.53849e-20, cumulative = 5.89586e-19
DICPCG:  Solving for p, Initial residual = 0.482788, Final residual = 8.44258e-07, No Iterations 265
time step continuity errors : sum local = 5.588e-10, global = 9.75524e-21, cumulative = 5.99341e-19
ExecutionTime = 7.4 s  ClockTime = 7 s

Time = 0.013125

Courant Number mean: 0.173456 max: 0.977973
smoothSolver:  Solving for Ux, Initial residual = 0.00904644, Final residual = 9.63152e-06, No Iterations 94
smoothSolver:  Solving for Uy, Initial residual = 0.0368434, Final residual = 9.96764e-06, No Iterations 118
DICPCG:  Solving for p, Initial residual = 0.683158, Final residual = 0.0329265, No Iterations 176
time step continuity errors : sum local = 1.48438e-05, global = -1.10373e-19, cumulative = 4.88968e-19
DICPCG:  Solving for p, Initial residual = 0.518462, Final residual = 8.75035e-07, No Iterations 265
time step continuity errors : sum local = 4.89566e-10, global = -9.9768e-20, cumulative = 3.892e-19
ExecutionTime = 7.75 s  ClockTime = 7 s

Time = 0.01375

Courant Number mean: 0.175526 max: 0.975866
smoothSolver:  Solving for Ux, Initial residual = 0.00868233, Final residual = 9.39772e-06, No Iterations 97
smoothSolver:  Solving for Uy, Initial residual = 0.0299569, Final residual = 9.62444e-06, No Iterations 117
DICPCG:  Solving for p, Initial residual = 0.666332, Final residual = 0.0322643, No Iterations 177
time step continuity errors : sum local = 1.38049e-05, global = -3.32061e-20, cumulative = 3.55994e-19
DICPCG:  Solving for p, Initial residual = 0.522159, Final residual = 9.93561e-07, No Iterations 268
time step continuity errors : sum local = 5.14681e-10, global = 8.54363e-22, cumulative = 3.56849e-19
ExecutionTime = 8.09 s  ClockTime = 8 s

Time = 0.014375

Courant Number mean: 0.177597 max: 0.97762
smoothSolver:  Solving for Ux, Initial residual = 0.00748516, Final residual = 9.63404e-06, No Iterations 94
smoothSolver:  Solving for Uy, Initial residual = 0.029487, Final residual = 9.82036e-06, No Iterations 118
DICPCG:  Solving for p, Initial residual = 0.679694, Final residual = 0.0333377, No Iterations 177
time step continuity errors : sum local = 1.4724e-05, global = 8.68204e-20, cumulative = 4.43669e-19
DICPCG:  Solving for p, Initial residual = 0.560589, Final residual = 8.22107e-07, No Iterations 263
time step continuity errors : sum local = 4.20447e-10, global = 7.0168e-20, cumulative = 5.13837e-19
ExecutionTime = 8.43 s  ClockTime = 8 s

Time = 0.015

Courant Number mean: 0.179525 max: 0.975057
smoothSolver:  Solving for Ux, Initial residual = 0.00779304, Final residual = 9.38634e-06, No Iterations 97
smoothSolver:  Solving for Uy, Initial residual = 0.0259647, Final residual = 9.49322e-06, No Iterations 116
DICPCG:  Solving for p, Initial residual = 0.6617, Final residual = 0.0298652, No Iterations 171
time step continuity errors : sum local = 1.25154e-05, global = -2.75813e-20, cumulative = 4.86256e-19
DICPCG:  Solving for p, Initial residual = 0.549384, Final residual = 9.74582e-07, No Iterations 269
time step continuity errors : sum local = 4.6931e-10, global = -4.57314e-21, cumulative = 4.81682e-19
ExecutionTime = 8.78 s  ClockTime = 8 s

Time = 0.015625

Courant Number mean: 0.181371 max: 0.979527
smoothSolver:  Solving for Ux, Initial residual = 0.00586099, Final residual = 9.47113e-06, No Iterations 89
smoothSolver:  Solving for Uy, Initial residual = 0.0274698, Final residual = 9.71105e-06, No Iterations 118
DICPCG:  Solving for p, Initial residual = 0.610803, Final residual = 0.0294871, No Iterations 152
time step continuity errors : sum local = 1.07104e-05, global = -3.90431e-20, cumulative = 4.42639e-19
DICPCG:  Solving for p, Initial residual = 0.500463, Final residual = 9.50332e-07, No Iterations 262
time step continuity errors : sum local = 4.02932e-10, global = 5.1821e-20, cumulative = 4.9446e-19
ExecutionTime = 9.11 s  ClockTime = 9 s

Time = 0.01625

Courant Number mean: 0.183189 max: 0.977901
smoothSolver:  Solving for Ux, Initial residual = 0.00559865, Final residual = 9.7279e-06, No Iterations 90
smoothSolver:  Solving for Uy, Initial residual = 0.0258935, Final residual = 9.41577e-06, No Iterations 120
DICPCG:  Solving for p, Initial residual = 0.555146, Final residual = 0.026524, No Iterations 178
time step continuity errors : sum local = 8.29547e-06, global = 4.89329e-21, cumulative = 4.99354e-19
DICPCG:  Solving for p, Initial residual = 0.474307, Final residual = 9.99959e-07, No Iterations 267
time step continuity errors : sum local = 3.47898e-10, global = 4.98055e-20, cumulative = 5.49159e-19
ExecutionTime = 9.45 s  ClockTime = 9 s

Time = 0.016875

Courant Number mean: 0.184771 max: 0.976873
smoothSolver:  Solving for Ux, Initial residual = 0.00404654, Final residual = 9.83446e-06, No Iterations 85
smoothSolver:  Solving for Uy, Initial residual = 0.0180161, Final residual = 9.80201e-06, No Iterations 110
DICPCG:  Solving for p, Initial residual = 0.513493, Final residual = 0.0222203, No Iterations 84
time step continuity errors : sum local = 7.47124e-06, global = 5.85011e-20, cumulative = 6.0766e-19
DICPCG:  Solving for p, Initial residual = 0.492667, Final residual = 9.84579e-07, No Iterations 268
time step continuity errors : sum local = 2.84682e-10, global = 8.26364e-20, cumulative = 6.90297e-19
ExecutionTime = 9.74 s  ClockTime = 9 s

Time = 0.0175

Courant Number mean: 0.18639 max: 0.977609
smoothSolver:  Solving for Ux, Initial residual = 0.00910206, Final residual = 9.58886e-06, No Iterations 103
smoothSolver:  Solving for Uy, Initial residual = 0.0332296, Final residual = 9.79088e-06, No Iterations 123
DICPCG:  Solving for p, Initial residual = 0.554359, Final residual = 0.0268912, No Iterations 165
time step continuity errors : sum local = 8.84743e-06, global = 2.25957e-19, cumulative = 9.16254e-19
DICPCG:  Solving for p, Initial residual = 0.30897, Final residual = 8.6721e-07, No Iterations 265
time step continuity errors : sum local = 4.96442e-10, global = -5.55557e-20, cumulative = 8.60698e-19
ExecutionTime = 10.08 s  ClockTime = 10 s

Time = 0.018125

Courant Number mean: 0.188183 max: 0.979889
smoothSolver:  Solving for Ux, Initial residual = 0.0105707, Final residual = 9.9613e-06, No Iterations 103
smoothSolver:  Solving for Uy, Initial residual = 0.0302647, Final residual = 9.98397e-06, No Iterations 116
DICPCG:  Solving for p, Initial residual = 0.586589, Final residual = 0.0288124, No Iterations 176
time step continuity errors : sum local = 1.01641e-05, global = 8.89749e-20, cumulative = 9.49673e-19
DICPCG:  Solving for p, Initial residual = 0.406804, Final residual = 9.22394e-07, No Iterations 264
time step continuity errors : sum local = 4.52481e-10, global = 8.35003e-20, cumulative = 1.03317e-18
ExecutionTime = 10.44 s  ClockTime = 10 s

Time = 0.01875

Courant Number mean: 0.189398 max: 0.976002
smoothSolver:  Solving for Ux, Initial residual = 0.00663604, Final residual = 9.76113e-06, No Iterations 90
smoothSolver:  Solving for Uy, Initial residual = 0.0237563, Final residual = 9.67501e-06, No Iterations 112
DICPCG:  Solving for p, Initial residual = 0.599148, Final residual = 0.0288983, No Iterations 183
time step continuity errors : sum local = 1.04005e-05, global = 8.48106e-20, cumulative = 1.11798e-18
DICPCG:  Solving for p, Initial residual = 0.468736, Final residual = 9.62673e-07, No Iterations 265
time step continuity errors : sum local = 4.27542e-10, global = -4.0879e-20, cumulative = 1.07711e-18
ExecutionTime = 10.77 s  ClockTime = 10 s

Time = 0.019375

Courant Number mean: 0.190837 max: 0.980419
smoothSolver:  Solving for Ux, Initial residual = 0.00559779, Final residual = 9.88221e-06, No Iterations 90
smoothSolver:  Solving for Uy, Initial residual = 0.0158959, Final residual = 9.83823e-06, No Iterations 103
DICPCG:  Solving for p, Initial residual = 0.566817, Final residual = 0.0279215, No Iterations 162
time step continuity errors : sum local = 9.23304e-06, global = 7.08351e-20, cumulative = 1.14794e-18
DICPCG:  Solving for p, Initial residual = 0.441922, Final residual = 9.71765e-07, No Iterations 260
time step continuity errors : sum local = 3.95442e-10, global = 2.989e-20, cumulative = 1.17783e-18
ExecutionTime = 11.1 s  ClockTime = 11 s

Time = 0.02

Courant Number mean: 0.19213 max: 0.978293
smoothSolver:  Solving for Ux, Initial residual = 0.00449512, Final residual = 9.97045e-06, No Iterations 87
smoothSolver:  Solving for Uy, Initial residual = 0.0173775, Final residual = 9.91762e-06, No Iterations 109
DICPCG:  Solving for p, Initial residual = 0.560258, Final residual = 0.0276521, No Iterations 174
time step continuity errors : sum local = 8.96383e-06, global = 7.62273e-20, cumulative = 1.25406e-18
DICPCG:  Solving for p, Initial residual = 0.461951, Final residual = 9.80948e-07, No Iterations 265
time step continuity errors : sum local = 3.70512e-10, global = 7.16488e-20, cumulative = 1.32571e-18
ExecutionTime = 11.42 s  ClockTime = 11 s

Time = 0.020625

Courant Number mean: 0.193441 max: 0.979935
smoothSolver:  Solving for Ux, Initial residual = 0.00489671, Final residual = 9.49806e-06, No Iterations 90
smoothSolver:  Solving for Uy, Initial residual = 0.0139779, Final residual = 9.44651e-06, No Iterations 102
DICPCG:  Solving for p, Initial residual = 0.558121, Final residual = 0.0246561, No Iterations 178
time step continuity errors : sum local = 7.84694e-06, global = -5.42886e-20, cumulative = 1.27142e-18
DICPCG:  Solving for p, Initial residual = 0.484672, Final residual = 9.80972e-07, No Iterations 270
time step continuity errors : sum local = 3.45283e-10, global = -6.29615e-20, cumulative = 1.20846e-18
ExecutionTime = 11.76 s  ClockTime = 11 s

Time = 0.02125

Courant Number mean: 0.194579 max: 0.978744
smoothSolver:  Solving for Ux, Initial residual = 0.00396261, Final residual = 9.41023e-06, No Iterations 87
smoothSolver:  Solving for Uy, Initial residual = 0.0148967, Final residual = 9.49143e-06, No Iterations 108
DICPCG:  Solving for p, Initial residual = 0.505274, Final residual = 0.0241232, No Iterations 178
time step continuity errors : sum local = 6.90116e-06, global = -9.72803e-20, cumulative = 1.11118e-18
DICPCG:  Solving for p, Initial residual = 0.42488, Final residual = 9.24012e-07, No Iterations 269
time step continuity errors : sum local = 2.97849e-10, global = -1.06362e-19, cumulative = 1.00481e-18
ExecutionTime = 12.1 s  ClockTime = 12 s

Time = 0.021875

Courant Number mean: 0.195763 max: 0.980263
smoothSolver:  Solving for Ux, Initial residual = 0.00437193, Final residual = 9.41281e-06, No Iterations 89
smoothSolver:  Solving for Uy, Initial residual = 0.0132575, Final residual = 9.92508e-06, No Iterations 104
DICPCG:  Solving for p, Initial residual = 0.514043, Final residual = 0.0244347, No Iterations 178
time step continuity errors : sum local = 7.05283e-06, global = 1.13095e-19, cumulative = 1.11791e-18
DICPCG:  Solving for p, Initial residual = 0.44459, Final residual = 9.33235e-07, No Iterations 269
time step continuity errors : sum local = 2.96282e-10, global = 8.00672e-20, cumulative = 1.19798e-18
ExecutionTime = 12.44 s  ClockTime = 12 s

Time = 0.0225

Courant Number mean: 0.196842 max: 0.979924
smoothSolver:  Solving for Ux, Initial residual = 0.00368311, Final residual = 9.6599e-06, No Iterations 86
smoothSolver:  Solving for Uy, Initial residual = 0.0131915, Final residual = 9.72434e-06, No Iterations 106
DICPCG:  Solving for p, Initial residual = 0.489334, Final residual = 0.0222852, No Iterations 184
time step continuity errors : sum local = 6.17092e-06, global = 2.16039e-19, cumulative = 1.41401e-18
DICPCG:  Solving for p, Initial residual = 0.432507, Final residual = 8.74915e-07, No Iterations 268
time step continuity errors : sum local = 2.62735e-10, global = -4.16992e-20, cumulative = 1.37232e-18
ExecutionTime = 12.77 s  ClockTime = 12 s

Time = 0.023125

Courant Number mean: 0.197927 max: 0.980841
smoothSolver:  Solving for Ux, Initial residual = 0.00289529, Final residual = 9.68144e-06, No Iterations 79
smoothSolver:  Solving for Uy, Initial residual = 0.00911562, Final residual = 9.44249e-06, No Iterations 98
DICPCG:  Solving for p, Initial residual = 0.442573, Final residual = 0.021475, No Iterations 161
time step continuity errors : sum local = 5.38397e-06, global = 5.65611e-20, cumulative = 1.42888e-18
DICPCG:  Solving for p, Initial residual = 0.402343, Final residual = 8.88575e-07, No Iterations 267
time step continuity errors : sum local = 2.34996e-10, global = -9.90935e-21, cumulative = 1.41897e-18
ExecutionTime = 13.08 s  ClockTime = 13 s

Time = 0.02375

Courant Number mean: 0.198916 max: 0.979802
smoothSolver:  Solving for Ux, Initial residual = 0.0023796, Final residual = 9.63399e-06, No Iterations 76
smoothSolver:  Solving for Uy, Initial residual = 0.0178345, Final residual = 9.50674e-06, No Iterations 117
DICPCG:  Solving for p, Initial residual = 0.435812, Final residual = 0.0196322, No Iterations 174
time step continuity errors : sum local = 4.86604e-06, global = 4.14618e-20, cumulative = 1.46043e-18
DICPCG:  Solving for p, Initial residual = 0.386432, Final residual = 8.82354e-07, No Iterations 263
time step continuity errors : sum local = 2.38612e-10, global = -2.38745e-20, cumulative = 1.43655e-18
ExecutionTime = 13.41 s  ClockTime = 13 s

Time = 0.024375

Courant Number mean: 0.199881 max: 0.979607
smoothSolver:  Solving for Ux, Initial residual = 0.00207296, Final residual = 9.51147e-06, No Iterations 76
smoothSolver:  Solving for Uy, Initial residual = 0.0096927, Final residual = 9.45787e-06, No Iterations 98
DICPCG:  Solving for p, Initial residual = 0.365309, Final residual = 0.0178336, No Iterations 176
time step continuity errors : sum local = 3.9309e-06, global = 8.92838e-20, cumulative = 1.52584e-18
DICPCG:  Solving for p, Initial residual = 0.337301, Final residual = 9.56596e-07, No Iterations 266
time step continuity errors : sum local = 2.1861e-10, global = -1.06976e-19, cumulative = 1.41886e-18
ExecutionTime = 13.73 s  ClockTime = 13 s

Time = 0.025

Courant Number mean: 0.200815 max: 0.980234
smoothSolver:  Solving for Ux, Initial residual = 0.00215348, Final residual = 9.49505e-06, No Iterations 78
smoothSolver:  Solving for Uy, Initial residual = 0.00593604, Final residual = 9.63103e-06, No Iterations 91
DICPCG:  Solving for p, Initial residual = 0.33355, Final residual = 0.0147061, No Iterations 154
time step continuity errors : sum local = 3.0901e-06, global = -4.26257e-21, cumulative = 1.4146e-18
DICPCG:  Solving for p, Initial residual = 0.30986, Final residual = 7.5934e-07, No Iterations 263
time step continuity errors : sum local = 1.64792e-10, global = -4.16941e-21, cumulative = 1.41043e-18
ExecutionTime = 14.1 s  ClockTime = 14 s

Time = 0.025625

Courant Number mean: 0.201699 max: 0.98007
smoothSolver:  Solving for Ux, Initial residual = 0.00183373, Final residual = 9.83365e-06, No Iterations 77
smoothSolver:  Solving for Uy, Initial residual = 0.00691658, Final residual = 9.46351e-06, No Iterations 100
DICPCG:  Solving for p, Initial residual = 0.276386, Final residual = 0.0133641, No Iterations 173
time step continuity errors : sum local = 2.60617e-06, global = 5.8251e-20, cumulative = 1.46868e-18
DICPCG:  Solving for p, Initial residual = 0.255364, Final residual = 8.75986e-07, No Iterations 263
time step continuity errors : sum local = 1.77163e-10, global = 5.80289e-20, cumulative = 1.52671e-18
ExecutionTime = 14.41 s  ClockTime = 14 s

Time = 0.02625

Courant Number mean: 0.202575 max: 0.979897
smoothSolver:  Solving for Ux, Initial residual = 0.00186104, Final residual = 9.74114e-06, No Iterations 78
smoothSolver:  Solving for Uy, Initial residual = 0.00442529, Final residual = 9.94729e-06, No Iterations 84
DICPCG:  Solving for p, Initial residual = 0.242837, Final residual = 0.0113199, No Iterations 179
time step continuity errors : sum local = 2.11389e-06, global = -8.11894e-20, cumulative = 1.44552e-18
DICPCG:  Solving for p, Initial residual = 0.224291, Final residual = 9.96477e-07, No Iterations 248
time step continuity errors : sum local = 1.92934e-10, global = -3.86092e-21, cumulative = 1.44166e-18
ExecutionTime = 14.71 s  ClockTime = 14 s

Time = 0.026875

Courant Number mean: 0.20338 max: 0.979514
smoothSolver:  Solving for Ux, Initial residual = 0.00151834, Final residual = 9.70816e-06, No Iterations 74
smoothSolver:  Solving for Uy, Initial residual = 0.00449489, Final residual = 9.64532e-06, No Iterations 91
DICPCG:  Solving for p, Initial residual = 0.205543, Final residual = 0.0100486, No Iterations 179
time step continuity errors : sum local = 1.79375e-06, global = 3.76529e-20, cumulative = 1.47931e-18
DICPCG:  Solving for p, Initial residual = 0.187384, Final residual = 8.28805e-07, No Iterations 260
time step continuity errors : sum local = 1.54145e-10, global = -1.68856e-20, cumulative = 1.46243e-18
ExecutionTime = 15.02 s  ClockTime = 15 s

Time = 0.0275

Courant Number mean: 0.204172 max: 0.979799
smoothSolver:  Solving for Ux, Initial residual = 0.00133381, Final residual = 9.63452e-06, No Iterations 72
smoothSolver:  Solving for Uy, Initial residual = 0.00396866, Final residual = 9.80599e-06, No Iterations 89
DICPCG:  Solving for p, Initial residual = 0.188845, Final residual = 0.00858745, No Iterations 184
time step continuity errors : sum local = 1.49977e-06, global = 1.59393e-19, cumulative = 1.62182e-18
DICPCG:  Solving for p, Initial residual = 0.175978, Final residual = 9.57491e-07, No Iterations 264
time step continuity errors : sum local = 1.71537e-10, global = 8.19596e-20, cumulative = 1.70378e-18
ExecutionTime = 15.34 s  ClockTime = 15 s

Time = 0.028125

Courant Number mean: 0.204936 max: 0.979955
smoothSolver:  Solving for Ux, Initial residual = 0.00117876, Final residual = 9.89218e-06, No Iterations 71
smoothSolver:  Solving for Uy, Initial residual = 0.00348161, Final residual = 9.9371e-06, No Iterations 88
DICPCG:  Solving for p, Initial residual = 0.152258, Final residual = 0.00652677, No Iterations 150
time step continuity errors : sum local = 1.09565e-06, global = 1.8451e-19, cumulative = 1.88829e-18
DICPCG:  Solving for p, Initial residual = 0.141998, Final residual = 8.76151e-07, No Iterations 261
time step continuity errors : sum local = 1.50133e-10, global = -3.93646e-20, cumulative = 1.84893e-18
ExecutionTime = 15.63 s  ClockTime = 15 s

Time = 0.02875

Courant Number mean: 0.205665 max: 0.980137
smoothSolver:  Solving for Ux, Initial residual = 0.00127435, Final residual = 9.39958e-06, No Iterations 75
smoothSolver:  Solving for Uy, Initial residual = 0.00297878, Final residual = 9.60496e-06, No Iterations 87
DICPCG:  Solving for p, Initial residual = 0.12704, Final residual = 0.00605119, No Iterations 176
time step continuity errors : sum local = 9.88325e-07, global = -2.16989e-20, cumulative = 1.82723e-18
DICPCG:  Solving for p, Initial residual = 0.118599, Final residual = 9.05974e-07, No Iterations 258
time step continuity errors : sum local = 1.51975e-10, global = -5.70387e-20, cumulative = 1.77019e-18
ExecutionTime = 15.95 s  ClockTime = 16 s

Time = 0.029375

Courant Number mean: 0.206377 max: 0.980237
smoothSolver:  Solving for Ux, Initial residual = 0.00108818, Final residual = 9.70046e-06, No Iterations 70
smoothSolver:  Solving for Uy, Initial residual = 0.00282691, Final residual = 9.50458e-06, No Iterations 87
DICPCG:  Solving for p, Initial residual = 0.10962, Final residual = 0.00546, No Iterations 177
time step continuity errors : sum local = 8.75609e-07, global = -1.12618e-20, cumulative = 1.75893e-18
DICPCG:  Solving for p, Initial residual = 0.103282, Final residual = 8.0141e-07, No Iterations 257
time step continuity errors : sum local = 1.30486e-10, global = -1.62331e-20, cumulative = 1.74269e-18
ExecutionTime = 16.25 s  ClockTime = 16 s

Time = 0.03

Courant Number mean: 0.207048 max: 0.980188
smoothSolver:  Solving for Ux, Initial residual = 0.000957499, Final residual = 9.97549e-06, No Iterations 69
smoothSolver:  Solving for Uy, Initial residual = 0.00271009, Final residual = 9.65615e-06, No Iterations 85
DICPCG:  Solving for p, Initial residual = 0.0917457, Final residual = 0.00374224, No Iterations 186
time step continuity errors : sum local = 5.87901e-07, global = -7.09708e-20, cumulative = 1.67172e-18
DICPCG:  Solving for p, Initial residual = 0.0861752, Final residual = 8.72325e-07, No Iterations 255
time step continuity errors : sum local = 1.3972e-10, global = 1.7392e-20, cumulative = 1.68911e-18
ExecutionTime = 16.55 s  ClockTime = 16 s

Time = 0.030625

Courant Number mean: 0.207696 max: 0.980289
smoothSolver:  Solving for Ux, Initial residual = 0.000843515, Final residual = 9.43e-06, No Iterations 68
smoothSolver:  Solving for Uy, Initial residual = 0.00264398, Final residual = 9.95065e-06, No Iterations 85
DICPCG:  Solving for p, Initial residual = 0.0695593, Final residual = 0.00340472, No Iterations 154
time step continuity errors : sum local = 5.22566e-07, global = 4.18235e-20, cumulative = 1.73094e-18
DICPCG:  Solving for p, Initial residual = 0.0656636, Final residual = 7.96156e-07, No Iterations 256
time step continuity errors : sum local = 1.23557e-10, global = 3.31669e-20, cumulative = 1.7641e-18
ExecutionTime = 16.84 s  ClockTime = 17 s

Time = 0.03125

Courant Number mean: 0.208321 max: 0.980322
smoothSolver:  Solving for Ux, Initial residual = 0.000823042, Final residual = 9.89736e-06, No Iterations 68
smoothSolver:  Solving for Uy, Initial residual = 0.00256497, Final residual = 9.70967e-06, No Iterations 86
DICPCG:  Solving for p, Initial residual = 0.0656112, Final residual = 0.00319482, No Iterations 90
time step continuity errors : sum local = 5.9849e-07, global = -1.40013e-20, cumulative = 1.7501e-18
DICPCG:  Solving for p, Initial residual = 0.0633356, Final residual = 9.80495e-07, No Iterations 253
time step continuity errors : sum local = 1.50067e-10, global = 2.7876e-20, cumulative = 1.77798e-18
ExecutionTime = 17.11 s  ClockTime = 17 s

Time = 0.031875

Courant Number mean: 0.208931 max: 0.980516
smoothSolver:  Solving for Ux, Initial residual = 0.00103835, Final residual = 9.79903e-06, No Iterations 69
smoothSolver:  Solving for Uy, Initial residual = 0.0038843, Final residual = 9.66746e-06, No Iterations 91
DICPCG:  Solving for p, Initial residual = 0.0963164, Final residual = 0.00471947, No Iterations 164
time step continuity errors : sum local = 7.48176e-07, global = -1.03143e-19, cumulative = 1.67484e-18
DICPCG:  Solving for p, Initial residual = 0.0809896, Final residual = 9.35246e-07, No Iterations 261
time step continuity errors : sum local = 1.71372e-10, global = 5.55296e-20, cumulative = 1.73037e-18
ExecutionTime = 17.41 s  ClockTime = 17 s

Time = 0.0325

Courant Number mean: 0.20952 max: 0.980323
smoothSolver:  Solving for Ux, Initial residual = 0.00111637, Final residual = 9.74994e-06, No Iterations 68
smoothSolver:  Solving for Uy, Initial residual = 0.00375585, Final residual = 9.42322e-06, No Iterations 88
DICPCG:  Solving for p, Initial residual = 0.113786, Final residual = 0.00549847, No Iterations 182
time step continuity errors : sum local = 8.89031e-07, global = -1.49528e-19, cumulative = 1.58084e-18
DICPCG:  Solving for p, Initial residual = 0.101392, Final residual = 9.84252e-07, No Iterations 260
time step continuity errors : sum local = 1.72333e-10, global = -4.10686e-20, cumulative = 1.53977e-18
ExecutionTime = 17.71 s  ClockTime = 17 s

Time = 0.033125

Courant Number mean: 0.210065 max: 0.980341
smoothSolver:  Solving for Ux, Initial residual = 0.000933661, Final residual = 9.44897e-06, No Iterations 67
smoothSolver:  Solving for Uy, Initial residual = 0.00305093, Final residual = 9.81184e-06, No Iterations 84
DICPCG:  Solving for p, Initial residual = 0.118356, Final residual = 0.00590999, No Iterations 156
time step continuity errors : sum local = 9.61628e-07, global = -1.07153e-19, cumulative = 1.43262e-18
DICPCG:  Solving for p, Initial residual = 0.10769, Final residual = 9.95451e-07, No Iterations 253
time step continuity errors : sum local = 1.7017e-10, global = 5.8471e-20, cumulative = 1.49109e-18
ExecutionTime = 17.99 s  ClockTime = 18 s

Time = 0.03375

Courant Number mean: 0.210605 max: 0.980515
smoothSolver:  Solving for Ux, Initial residual = 0.000905466, Final residual = 9.66981e-06, No Iterations 68
smoothSolver:  Solving for Uy, Initial residual = 0.00258989, Final residual = 9.92317e-06, No Iterations 83
DICPCG:  Solving for p, Initial residual = 0.123588, Final residual = 0.00614038, No Iterations 180
time step continuity errors : sum local = 1.00374e-06, global = -1.06078e-19, cumulative = 1.38501e-18
DICPCG:  Solving for p, Initial residual = 0.114121, Final residual = 7.76838e-07, No Iterations 256
time step continuity errors : sum local = 1.32355e-10, global = 7.13433e-20, cumulative = 1.45635e-18
ExecutionTime = 18.3 s  ClockTime = 18 s

Time = 0.034375

Courant Number mean: 0.211127 max: 0.980737
smoothSolver:  Solving for Ux, Initial residual = 0.000732647, Final residual = 9.8849e-06, No Iterations 63
smoothSolver:  Solving for Uy, Initial residual = 0.00253099, Final residual = 9.92953e-06, No Iterations 83
DICPCG:  Solving for p, Initial residual = 0.114383, Final residual = 0.00549592, No Iterations 176
time step continuity errors : sum local = 8.87564e-07, global = 6.79865e-20, cumulative = 1.52434e-18
DICPCG:  Solving for p, Initial residual = 0.107591, Final residual = 8.60547e-07, No Iterations 256
time step continuity errors : sum local = 1.41962e-10, global = -7.13423e-20, cumulative = 1.453e-18
ExecutionTime = 18.59 s  ClockTime = 18 s

Time = 0.035

Courant Number mean: 0.211624 max: 0.980668
smoothSolver:  Solving for Ux, Initial residual = 0.000775905, Final residual = 9.72399e-06, No Iterations 66
smoothSolver:  Solving for Uy, Initial residual = 0.00220709, Final residual = 9.52586e-06, No Iterations 82
DICPCG:  Solving for p, Initial residual = 0.108419, Final residual = 0.00482911, No Iterations 183
time step continuity errors : sum local = 7.74966e-07, global = -8.79849e-20, cumulative = 1.36501e-18
DICPCG:  Solving for p, Initial residual = 0.103133, Final residual = 9.81824e-07, No Iterations 248
time step continuity errors : sum local = 1.60024e-10, global = 3.37902e-20, cumulative = 1.3988e-18
ExecutionTime = 18.89 s  ClockTime = 19 s

Time = 0.035625

Courant Number mean: 0.212107 max: 0.980689
smoothSolver:  Solving for Ux, Initial residual = 0.000630718, Final residual = 9.91999e-06, No Iterations 62
smoothSolver:  Solving for Uy, Initial residual = 0.00217239, Final residual = 9.47243e-06, No Iterations 81
DICPCG:  Solving for p, Initial residual = 0.0880757, Final residual = 0.00391104, No Iterations 155
time step continuity errors : sum local = 6.13985e-07, global = -6.8826e-22, cumulative = 1.39811e-18
DICPCG:  Solving for p, Initial residual = 0.083562, Final residual = 8.78895e-07, No Iterations 256
time step continuity errors : sum local = 1.38786e-10, global = 2.8739e-20, cumulative = 1.42685e-18
ExecutionTime = 19.17 s  ClockTime = 19 s

Time = 0.03625

Courant Number mean: 0.212567 max: 0.980737
smoothSolver:  Solving for Ux, Initial residual = 0.000688632, Final residual = 9.62777e-06, No Iterations 65
smoothSolver:  Solving for Uy, Initial residual = 0.00200152, Final residual = 9.66764e-06, No Iterations 81
DICPCG:  Solving for p, Initial residual = 0.0776479, Final residual = 0.00317012, No Iterations 177
time step continuity errors : sum local = 4.92664e-07, global = -9.76172e-20, cumulative = 1.32924e-18
DICPCG:  Solving for p, Initial residual = 0.0727543, Final residual = 9.15812e-07, No Iterations 251
time step continuity errors : sum local = 1.45121e-10, global = -1.22637e-19, cumulative = 1.2066e-18
ExecutionTime = 19.47 s  ClockTime = 19 s

Time = 0.036875

Courant Number mean: 0.213019 max: 0.980942
smoothSolver:  Solving for Ux, Initial residual = 0.000631283, Final residual = 9.74495e-06, No Iterations 62
smoothSolver:  Solving for Uy, Initial residual = 0.00173835, Final residual = 9.99898e-06, No Iterations 78
DICPCG:  Solving for p, Initial residual = 0.0633314, Final residual = 0.00312696, No Iterations 150
time step continuity errors : sum local = 4.77541e-07, global = -1.01445e-19, cumulative = 1.10515e-18
DICPCG:  Solving for p, Initial residual = 0.0594211, Final residual = 9.07053e-07, No Iterations 251
time step continuity errors : sum local = 1.40159e-10, global = 7.33887e-20, cumulative = 1.17854e-18
ExecutionTime = 19.75 s  ClockTime = 19 s

Time = 0.0375

Courant Number mean: 0.213444 max: 0.980736
smoothSolver:  Solving for Ux, Initial residual = 0.000538469, Final residual = 9.47329e-06, No Iterations 61
smoothSolver:  Solving for Uy, Initial residual = 0.00172355, Final residual = 9.76825e-06, No Iterations 79
DICPCG:  Solving for p, Initial residual = 0.0587034, Final residual = 0.00287249, No Iterations 172
time step continuity errors : sum local = 4.37639e-07, global = 5.43968e-20, cumulative = 1.23294e-18
DICPCG:  Solving for p, Initial residual = 0.0558043, Final residual = 9.99608e-07, No Iterations 247
time step continuity errors : sum local = 1.53277e-10, global = 1.71927e-20, cumulative = 1.25013e-18
ExecutionTime = 20.1 s  ClockTime = 20 s

Time = 0.038125

Courant Number mean: 0.213856 max: 0.980789
smoothSolver:  Solving for Ux, Initial residual = 0.00051763, Final residual = 9.93139e-06, No Iterations 60
smoothSolver:  Solving for Uy, Initial residual = 0.00165398, Final residual = 9.44986e-06, No Iterations 79
DICPCG:  Solving for p, Initial residual = 0.0505279, Final residual = 0.0024875, No Iterations 170
time step continuity errors : sum local = 3.75944e-07, global = 7.64943e-20, cumulative = 1.32663e-18
DICPCG:  Solving for p, Initial residual = 0.0481833, Final residual = 9.7798e-07, No Iterations 250
time step continuity errors : sum local = 1.48958e-10, global = 9.04604e-20, cumulative = 1.41709e-18
ExecutionTime = 20.38 s  ClockTime = 20 s

Time = 0.03875

Courant Number mean: 0.214258 max: 0.980854
smoothSolver:  Solving for Ux, Initial residual = 0.00049451, Final residual = 9.80847e-06, No Iterations 60
smoothSolver:  Solving for Uy, Initial residual = 0.00153839, Final residual = 9.69986e-06, No Iterations 78
DICPCG:  Solving for p, Initial residual = 0.0451098, Final residual = 0.00202909, No Iterations 183
time step continuity errors : sum local = 3.05198e-07, global = 5.49454e-20, cumulative = 1.47203e-18
DICPCG:  Solving for p, Initial residual = 0.0427766, Final residual = 9.9295e-07, No Iterations 253
time step continuity errors : sum local = 1.50243e-10, global = 9.73765e-20, cumulative = 1.56941e-18
ExecutionTime = 20.67 s  ClockTime = 20 s

Time = 0.039375

Courant Number mean: 0.214644 max: 0.980901
smoothSolver:  Solving for Ux, Initial residual = 0.000480766, Final residual = 9.4827e-06, No Iterations 60
smoothSolver:  Solving for Uy, Initial residual = 0.00140047, Final residual = 9.64269e-06, No Iterations 77
DICPCG:  Solving for p, Initial residual = 0.0370088, Final residual = 0.00167977, No Iterations 170
time step continuity errors : sum local = 2.50186e-07, global = 3.43666e-20, cumulative = 1.60378e-18
DICPCG:  Solving for p, Initial residual = 0.0352238, Final residual = 8.53975e-07, No Iterations 243
time step continuity errors : sum local = 1.28028e-10, global = 1.62308e-19, cumulative = 1.76608e-18
ExecutionTime = 20.95 s  ClockTime = 21 s

Time = 0.04

Courant Number mean: 0.215016 max: 0.980937
smoothSolver:  Solving for Ux, Initial residual = 0.000411014, Final residual = 9.43289e-06, No Iterations 58
smoothSolver:  Solving for Uy, Initial residual = 0.0014628, Final residual = 9.57329e-06, No Iterations 78
DICPCG:  Solving for p, Initial residual = 0.0304682, Final residual = 0.00143087, No Iterations 182
time step continuity errors : sum local = 2.11833e-07, global = 3.36761e-20, cumulative = 1.79976e-18
DICPCG:  Solving for p, Initial residual = 0.0290848, Final residual = 8.46896e-07, No Iterations 249
time step continuity errors : sum local = 1.25776e-10, global = -4.59551e-20, cumulative = 1.75381e-18
ExecutionTime = 21.25 s  ClockTime = 21 s

Time = 0.040625

Courant Number mean: 0.215377 max: 0.980984
smoothSolver:  Solving for Ux, Initial residual = 0.000445692, Final residual = 9.65175e-06, No Iterations 59
smoothSolver:  Solving for Uy, Initial residual = 0.00121036, Final residual = 9.58632e-06, No Iterations 75
DICPCG:  Solving for p, Initial residual = 0.0264982, Final residual = 0.00124056, No Iterations 150
time step continuity errors : sum local = 1.83252e-07, global = -1.79682e-19, cumulative = 1.57412e-18
DICPCG:  Solving for p, Initial residual = 0.02532, Final residual = 9.53692e-07, No Iterations 243
time step continuity errors : sum local = 1.41076e-10, global = 6.83873e-20, cumulative = 1.64251e-18
ExecutionTime = 21.52 s  ClockTime = 21 s

Time = 0.04125

Courant Number mean: 0.215722 max: 0.980966
smoothSolver:  Solving for Ux, Initial residual = 0.000390599, Final residual = 9.94723e-06, No Iterations 57
smoothSolver:  Solving for Uy, Initial residual = 0.00121305, Final residual = 9.9173e-06, No Iterations 75
DICPCG:  Solving for p, Initial residual = 0.0227122, Final residual = 0.00107771, No Iterations 90
time step continuity errors : sum local = 1.84366e-07, global = -1.17042e-19, cumulative = 1.52547e-18
DICPCG:  Solving for p, Initial residual = 0.0218766, Final residual = 9.60584e-07, No Iterations 248
time step continuity errors : sum local = 1.41364e-10, global = 1.03324e-19, cumulative = 1.62879e-18
ExecutionTime = 21.77 s  ClockTime = 21 s

Time = 0.041875

Courant Number mean: 0.216056 max: 0.98099
smoothSolver:  Solving for Ux, Initial residual = 0.000395188, Final residual = 9.60881e-06, No Iterations 56
smoothSolver:  Solving for Uy, Initial residual = 0.00152804, Final residual = 9.82884e-06, No Iterations 78
DICPCG:  Solving for p, Initial residual = 0.0275378, Final residual = 0.00133888, No Iterations 162
time step continuity errors : sum local = 1.975e-07, global = 1.23155e-19, cumulative = 1.75195e-18
DICPCG:  Solving for p, Initial residual = 0.0257764, Final residual = 7.96287e-07, No Iterations 256
time step continuity errors : sum local = 1.22024e-10, global = -2.91117e-20, cumulative = 1.72284e-18
ExecutionTime = 22.04 s  ClockTime = 22 s

Time = 0.0425

Courant Number mean: 0.216382 max: 0.981026
smoothSolver:  Solving for Ux, Initial residual = 0.000492311, Final residual = 9.84512e-06, No Iterations 59
smoothSolver:  Solving for Uy, Initial residual = 0.0012695, Final residual = 9.81889e-06, No Iterations 73
DICPCG:  Solving for p, Initial residual = 0.030534, Final residual = 0.00148409, No Iterations 184
time step continuity errors : sum local = 2.19925e-07, global = -3.82393e-20, cumulative = 1.6846e-18
DICPCG:  Solving for p, Initial residual = 0.0287866, Final residual = 9.76259e-07, No Iterations 252
time step continuity errors : sum local = 1.47275e-10, global = -9.64535e-20, cumulative = 1.58814e-18
ExecutionTime = 22.33 s  ClockTime = 22 s

Time = 0.043125

Courant Number mean: 0.216693 max: 0.981056
smoothSolver:  Solving for Ux, Initial residual = 0.000405687, Final residual = 9.73503e-06, No Iterations 56
smoothSolver:  Solving for Uy, Initial residual = 0.00120266, Final residual = 9.60446e-06, No Iterations 74
DICPCG:  Solving for p, Initial residual = 0.0305601, Final residual = 0.00147293, No Iterations 166
time step continuity errors : sum local = 2.1926e-07, global = -1.04746e-20, cumulative = 1.57767e-18
DICPCG:  Solving for p, Initial residual = 0.0291477, Final residual = 9.86225e-07, No Iterations 245
time step continuity errors : sum local = 1.48166e-10, global = 7.7752e-20, cumulative = 1.65542e-18
ExecutionTime = 22.61 s  ClockTime = 22 s

Time = 0.04375

Courant Number mean: 0.216993 max: 0.981058
smoothSolver:  Solving for Ux, Initial residual = 0.00041578, Final residual = 9.38865e-06, No Iterations 58
smoothSolver:  Solving for Uy, Initial residual = 0.00103313, Final residual = 9.82121e-06, No Iterations 71
DICPCG:  Solving for p, Initial residual = 0.0290283, Final residual = 0.00143284, No Iterations 175
time step continuity errors : sum local = 2.12392e-07, global = -1.80005e-19, cumulative = 1.47542e-18
DICPCG:  Solving for p, Initial residual = 0.0276798, Final residual = 9.62383e-07, No Iterations 244
time step continuity errors : sum local = 1.44228e-10, global = 8.75714e-21, cumulative = 1.48417e-18
ExecutionTime = 22.89 s  ClockTime = 23 s

Time = 0.044375

Courant Number mean: 0.217281 max: 0.981055
smoothSolver:  Solving for Ux, Initial residual = 0.000339504, Final residual = 9.8386e-06, No Iterations 54
smoothSolver:  Solving for Uy, Initial residual = 0.0011219, Final residual = 9.65419e-06, No Iterations 73
DICPCG:  Solving for p, Initial residual = 0.0258621, Final residual = 0.00123, No Iterations 153
time step continuity errors : sum local = 1.81552e-07, global = 4.22266e-20, cumulative = 1.5264e-18
DICPCG:  Solving for p, Initial residual = 0.0245358, Final residual = 9.05026e-07, No Iterations 249
time step continuity errors : sum local = 1.34671e-10, global = 4.79815e-20, cumulative = 1.57438e-18
ExecutionTime = 23.16 s  ClockTime = 23 s

Time = 0.045

Courant Number mean: 0.217562 max: 0.981122
smoothSolver:  Solving for Ux, Initial residual = 0.000348946, Final residual = 9.85215e-06, No Iterations 55
smoothSolver:  Solving for Uy, Initial residual = 0.00101703, Final residual = 9.55534e-06, No Iterations 72
DICPCG:  Solving for p, Initial residual = 0.0224876, Final residual = 0.00100122, No Iterations 178
time step continuity errors : sum local = 1.47434e-07, global = -8.17305e-20, cumulative = 1.49265e-18
DICPCG:  Solving for p, Initial residual = 0.0213896, Final residual = 9.30238e-07, No Iterations 243
time step continuity errors : sum local = 1.37453e-10, global = -1.28648e-19, cumulative = 1.364e-18
ExecutionTime = 23.43 s  ClockTime = 23 s

Time = 0.045625

Courant Number mean: 0.217834 max: 0.981127
smoothSolver:  Solving for Ux, Initial residual = 0.000313287, Final residual = 9.4127e-06, No Iterations 54
smoothSolver:  Solving for Uy, Initial residual = 0.000999746, Final residual = 9.56461e-06, No Iterations 72
DICPCG:  Solving for p, Initial residual = 0.0204407, Final residual = 0.000973251, No Iterations 175
time step continuity errors : sum local = 1.4265e-07, global = -5.65054e-20, cumulative = 1.3075e-18
DICPCG:  Solving for p, Initial residual = 0.0196147, Final residual = 9.06768e-07, No Iterations 245
time step continuity errors : sum local = 1.3334e-10, global = -1.32311e-21, cumulative = 1.30617e-18
ExecutionTime = 23.7 s  ClockTime = 23 s

Time = 0.04625

Courant Number mean: 0.218095 max: 0.981177
smoothSolver:  Solving for Ux, Initial residual = 0.000312111, Final residual = 9.55859e-06, No Iterations 54
smoothSolver:  Solving for Uy, Initial residual = 0.000916231, Final residual = 9.47568e-06, No Iterations 71
DICPCG:  Solving for p, Initial residual = 0.0196229, Final residual = 0.000920553, No Iterations 154
time step continuity errors : sum local = 1.34962e-07, global = 5.07389e-20, cumulative = 1.35691e-18
DICPCG:  Solving for p, Initial residual = 0.0188926, Final residual = 8.66352e-07, No Iterations 242
time step continuity errors : sum local = 1.2744e-10, global = -4.37566e-20, cumulative = 1.31316e-18
ExecutionTime = 23.98 s  ClockTime = 24 s

Time = 0.046875

Courant Number mean: 0.218347 max: 0.981181
smoothSolver:  Solving for Ux, Initial residual = 0.000301694, Final residual = 9.89341e-06, No Iterations 53
smoothSolver:  Solving for Uy, Initial residual = 0.000872389, Final residual = 9.85405e-06, No Iterations 70
DICPCG:  Solving for p, Initial residual = 0.0171588, Final residual = 0.000821902, No Iterations 162
time step continuity errors : sum local = 1.20598e-07, global = 2.62288e-20, cumulative = 1.33939e-18
DICPCG:  Solving for p, Initial residual = 0.0164779, Final residual = 9.58969e-07, No Iterations 243
time step continuity errors : sum local = 1.40738e-10, global = 9.12836e-21, cumulative = 1.34851e-18
ExecutionTime = 24.25 s  ClockTime = 24 s

Time = 0.0475

Courant Number mean: 0.218592 max: 0.981196
smoothSolver:  Solving for Ux, Initial residual = 0.00027315, Final residual = 9.70332e-06, No Iterations 52
smoothSolver:  Solving for Uy, Initial residual = 0.000901124, Final residual = 9.50561e-06, No Iterations 71
DICPCG:  Solving for p, Initial residual = 0.0149718, Final residual = 0.000681845, No Iterations 150
time step continuity errors : sum local = 9.98113e-08, global = 4.98523e-20, cumulative = 1.39837e-18
DICPCG:  Solving for p, Initial residual = 0.0143209, Final residual = 9.31476e-07, No Iterations 228
time step continuity errors : sum local = 1.36626e-10, global = 4.56767e-20, cumulative = 1.44404e-18
ExecutionTime = 24.51 s  ClockTime = 24 s

Time = 0.048125

Courant Number mean: 0.218828 max: 0.981237
smoothSolver:  Solving for Ux, Initial residual = 0.000276425, Final residual = 9.6381e-06, No Iterations 52
smoothSolver:  Solving for Uy, Initial residual = 0.00080386, Final residual = 9.57918e-06, No Iterations 69
DICPCG:  Solving for p, Initial residual = 0.0129, Final residual = 0.000628852, No Iterations 175
time step continuity errors : sum local = 9.18288e-08, global = -4.78112e-20, cumulative = 1.39623e-18
DICPCG:  Solving for p, Initial residual = 0.012434, Final residual = 9.24214e-07, No Iterations 230
time step continuity errors : sum local = 1.35027e-10, global = 4.90116e-20, cumulative = 1.44524e-18
ExecutionTime = 24.77 s  ClockTime = 24 s

Time = 0.04875

Courant Number mean: 0.219054 max: 0.981206
smoothSolver:  Solving for Ux, Initial residual = 0.000262502, Final residual = 9.85646e-06, No Iterations 51
smoothSolver:  Solving for Uy, Initial residual = 0.000781515, Final residual = 9.96514e-06, No Iterations 68
DICPCG:  Solving for p, Initial residual = 0.0112699, Final residual = 0.000529529, No Iterations 184
time step continuity errors : sum local = 7.72593e-08, global = -3.20849e-20, cumulative = 1.41316e-18
DICPCG:  Solving for p, Initial residual = 0.0108233, Final residual = 8.35404e-07, No Iterations 240
time step continuity errors : sum local = 1.2177e-10, global = 9.85543e-20, cumulative = 1.51171e-18
ExecutionTime = 25.04 s  ClockTime = 25 s

Time = 0.049375

Courant Number mean: 0.219274 max: 0.981243
smoothSolver:  Solving for Ux, Initial residual = 0.000250664, Final residual = 9.56301e-06, No Iterations 51
smoothSolver:  Solving for Uy, Initial residual = 0.000746026, Final residual = 9.77429e-06, No Iterations 68
DICPCG:  Solving for p, Initial residual = 0.00853992, Final residual = 0.000377319, No Iterations 150
time step continuity errors : sum local = 5.48063e-08, global = 4.31043e-20, cumulative = 1.55482e-18
DICPCG:  Solving for p, Initial residual = 0.00811366, Final residual = 8.62788e-07, No Iterations 231
time step continuity errors : sum local = 1.25512e-10, global = -9.25766e-21, cumulative = 1.54556e-18
ExecutionTime = 25.3 s  ClockTime = 25 s

Time = 0.05

Courant Number mean: 0.219486 max: 0.98126
smoothSolver:  Solving for Ux, Initial residual = 0.000240898, Final residual = 9.90625e-06, No Iterations 50
smoothSolver:  Solving for Uy, Initial residual = 0.000711226, Final residual = 9.99155e-06, No Iterations 67
DICPCG:  Solving for p, Initial residual = 0.0068812, Final residual = 0.000326254, No Iterations 177
time step continuity errors : sum local = 4.73294e-08, global = -6.09098e-20, cumulative = 1.48465e-18
DICPCG:  Solving for p, Initial residual = 0.0065758, Final residual = 9.60829e-07, No Iterations 239
time step continuity errors : sum local = 1.39517e-10, global = 8.52161e-20, cumulative = 1.56987e-18
ExecutionTime = 25.64 s  ClockTime = 25 s

Time = 0.050625

Courant Number mean: 0.219691 max: 0.981267
smoothSolver:  Solving for Ux, Initial residual = 0.000229786, Final residual = 9.46481e-06, No Iterations 50
smoothSolver:  Solving for Uy, Initial residual = 0.000685756, Final residual = 9.68284e-06, No Iterations 67
DICPCG:  Solving for p, Initial residual = 0.00594103, Final residual = 0.000269099, No Iterations 154
time step continuity errors : sum local = 3.91208e-08, global = -3.24451e-20, cumulative = 1.53742e-18
DICPCG:  Solving for p, Initial residual = 0.00568982, Final residual = 9.64707e-07, No Iterations 236
time step continuity errors : sum local = 1.39892e-10, global = -1.68792e-19, cumulative = 1.36863e-18
ExecutionTime = 25.9 s  ClockTime = 26 s

Time = 0.05125

Courant Number mean: 0.21989 max: 0.981283
smoothSolver:  Solving for Ux, Initial residual = 0.000223623, Final residual = 9.87392e-06, No Iterations 49
smoothSolver:  Solving for Uy, Initial residual = 0.000658854, Final residual = 9.94991e-06, No Iterations 66
DICPCG:  Solving for p, Initial residual = 0.00489469, Final residual = 0.000244645, No Iterations 76
time step continuity errors : sum local = 3.76257e-08, global = -7.86758e-20, cumulative = 1.28995e-18
DICPCG:  Solving for p, Initial residual = 0.00468244, Final residual = 8.86376e-07, No Iterations 237
time step continuity errors : sum local = 1.28546e-10, global = 2.20702e-20, cumulative = 1.31202e-18
ExecutionTime = 26.12 s  ClockTime = 26 s

Time = 0.051875

Courant Number mean: 0.220081 max: 0.981297
smoothSolver:  Solving for Ux, Initial residual = 0.000201665, Final residual = 9.40706e-06, No Iterations 48
smoothSolver:  Solving for Uy, Initial residual = 0.000698348, Final residual = 9.79258e-06, No Iterations 67
DICPCG:  Solving for p, Initial residual = 0.00604035, Final residual = 0.000298665, No Iterations 181
time step continuity errors : sum local = 4.33765e-08, global = 1.00073e-19, cumulative = 1.4121e-18
DICPCG:  Solving for p, Initial residual = 0.00584095, Final residual = 9.79775e-07, No Iterations 229
time step continuity errors : sum local = 1.42595e-10, global = -6.9037e-20, cumulative = 1.34306e-18
ExecutionTime = 26.38 s  ClockTime = 26 s

Time = 0.0525

Courant Number mean: 0.220267 max: 0.981321
smoothSolver:  Solving for Ux, Initial residual = 0.000221568, Final residual = 9.55447e-06, No Iterations 49
smoothSolver:  Solving for Uy, Initial residual = 0.000616754, Final residual = 9.60739e-06, No Iterations 65
DICPCG:  Solving for p, Initial residual = 0.00551406, Final residual = 0.000245079, No Iterations 155
time step continuity errors : sum local = 3.55559e-08, global = 3.51176e-20, cumulative = 1.37818e-18
DICPCG:  Solving for p, Initial residual = 0.00530261, Final residual = 9.05769e-07, No Iterations 239
time step continuity errors : sum local = 1.31531e-10, global = -1.14391e-19, cumulative = 1.26379e-18
ExecutionTime = 26.64 s  ClockTime = 26 s

Time = 0.053125

Courant Number mean: 0.220446 max: 0.981325
smoothSolver:  Solving for Ux, Initial residual = 0.000202585, Final residual = 9.46247e-06, No Iterations 48
smoothSolver:  Solving for Uy, Initial residual = 0.000612857, Final residual = 9.76481e-06, No Iterations 65
DICPCG:  Solving for p, Initial residual = 0.00469499, Final residual = 0.000229515, No Iterations 154
time step continuity errors : sum local = 3.35908e-08, global = -2.90294e-20, cumulative = 1.23476e-18
DICPCG:  Solving for p, Initial residual = 0.00446442, Final residual = 9.09652e-07, No Iterations 233
time step continuity errors : sum local = 1.32059e-10, global = 3.64394e-20, cumulative = 1.2712e-18
ExecutionTime = 26.9 s  ClockTime = 27 s

Time = 0.05375

Courant Number mean: 0.22062 max: 0.981336
smoothSolver:  Solving for Ux, Initial residual = 0.000198751, Final residual = 9.95706e-06, No Iterations 47
smoothSolver:  Solving for Uy, Initial residual = 0.000577391, Final residual = 9.82448e-06, No Iterations 64
DICPCG:  Solving for p, Initial residual = 0.0049103, Final residual = 0.000242708, No Iterations 74
time step continuity errors : sum local = 3.54152e-08, global = 5.4316e-20, cumulative = 1.32551e-18
DICPCG:  Solving for p, Initial residual = 0.00473777, Final residual = 8.46258e-07, No Iterations 227
time step continuity errors : sum local = 1.2262e-10, global = -2.89492e-20, cumulative = 1.29656e-18
ExecutionTime = 27.12 s  ClockTime = 27 s

Time = 0.054375

Courant Number mean: 0.220787 max: 0.981345
smoothSolver:  Solving for Ux, Initial residual = 0.000178776, Final residual = 9.41667e-06, No Iterations 46
smoothSolver:  Solving for Uy, Initial residual = 0.000611708, Final residual = 9.70605e-06, No Iterations 65
DICPCG:  Solving for p, Initial residual = 0.00544051, Final residual = 0.000268449, No Iterations 179
time step continuity errors : sum local = 3.89297e-08, global = 4.69195e-21, cumulative = 1.30125e-18
DICPCG:  Solving for p, Initial residual = 0.00523328, Final residual = 9.18284e-07, No Iterations 225
time step continuity errors : sum local = 1.33286e-10, global = -8.56386e-20, cumulative = 1.21562e-18
ExecutionTime = 27.37 s  ClockTime = 27 s

Time = 0.055

Courant Number mean: 0.220949 max: 0.981363
smoothSolver:  Solving for Ux, Initial residual = 0.000192686, Final residual = 9.48126e-06, No Iterations 47
smoothSolver:  Solving for Uy, Initial residual = 0.000532376, Final residual = 9.54488e-06, No Iterations 63
DICPCG:  Solving for p, Initial residual = 0.00447037, Final residual = 0.000221985, No Iterations 182
time step continuity errors : sum local = 3.2123e-08, global = 5.55773e-20, cumulative = 1.27119e-18
DICPCG:  Solving for p, Initial residual = 0.00430856, Final residual = 9.76521e-07, No Iterations 231
time step continuity errors : sum local = 1.41553e-10, global = 1.01079e-19, cumulative = 1.37227e-18
ExecutionTime = 27.63 s  ClockTime = 27 s

Time = 0.055625

Courant Number mean: 0.221105 max: 0.981365
smoothSolver:  Solving for Ux, Initial residual = 0.000178205, Final residual = 9.48627e-06, No Iterations 46
smoothSolver:  Solving for Uy, Initial residual = 0.00053164, Final residual = 9.71157e-06, No Iterations 63
DICPCG:  Solving for p, Initial residual = 0.00371502, Final residual = 0.000169605, No Iterations 185
time step continuity errors : sum local = 2.45478e-08, global = 1.77021e-20, cumulative = 1.38997e-18
DICPCG:  Solving for p, Initial residual = 0.00357854, Final residual = 9.58363e-07, No Iterations 230
time step continuity errors : sum local = 1.39014e-10, global = 1.10096e-20, cumulative = 1.40098e-18
ExecutionTime = 27.9 s  ClockTime = 28 s

Time = 0.05625

Courant Number mean: 0.221257 max: 0.981381
smoothSolver:  Solving for Ux, Initial residual = 0.000172369, Final residual = 9.85573e-06, No Iterations 45
smoothSolver:  Solving for Uy, Initial residual = 0.000503646, Final residual = 9.79539e-06, No Iterations 62
DICPCG:  Solving for p, Initial residual = 0.00302735, Final residual = 0.000140164, No Iterations 154
time step continuity errors : sum local = 2.04424e-08, global = 2.76809e-20, cumulative = 1.42866e-18
DICPCG:  Solving for p, Initial residual = 0.00290513, Final residual = 9.6728e-07, No Iterations 228
time step continuity errors : sum local = 1.3992e-10, global = -7.77326e-20, cumulative = 1.35093e-18
ExecutionTime = 28.16 s  ClockTime = 28 s

Time = 0.056875

Courant Number mean: 0.221403 max: 0.981388
smoothSolver:  Solving for Ux, Initial residual = 0.00016584, Final residual = 9.49904e-06, No Iterations 45
smoothSolver:  Solving for Uy, Initial residual = 0.000492767, Final residual = 9.64987e-06, No Iterations 62
DICPCG:  Solving for p, Initial residual = 0.00284886, Final residual = 0.000140266, No Iterations 87
time step continuity errors : sum local = 2.21621e-08, global = 5.70833e-20, cumulative = 1.40802e-18
DICPCG:  Solving for p, Initial residual = 0.00273697, Final residual = 8.51517e-07, No Iterations 221
time step continuity errors : sum local = 1.23296e-10, global = -4.76059e-20, cumulative = 1.36041e-18
ExecutionTime = 28.38 s  ClockTime = 28 s

Time = 0.0575

Courant Number mean: 0.221544 max: 0.981405
smoothSolver:  Solving for Ux, Initial residual = 0.000172682, Final residual = 9.72751e-06, No Iterations 45
smoothSolver:  Solving for Uy, Initial residual = 0.000459244, Final residual = 9.41754e-06, No Iterations 61
DICPCG:  Solving for p, Initial residual = 0.00320724, Final residual = 0.000155945, No Iterations 179
time step continuity errors : sum local = 2.25777e-08, global = -1.44716e-19, cumulative = 1.21569e-18
DICPCG:  Solving for p, Initial residual = 0.0030797, Final residual = 8.86102e-07, No Iterations 225
time step continuity errors : sum local = 1.286e-10, global = 3.73355e-20, cumulative = 1.25303e-18
ExecutionTime = 28.63 s  ClockTime = 28 s

Time = 0.058125

Courant Number mean: 0.221681 max: 0.981407
smoothSolver:  Solving for Ux, Initial residual = 0.000157191, Final residual = 9.9819e-06, No Iterations 43
smoothSolver:  Solving for Uy, Initial residual = 0.000488366, Final residual = 9.80529e-06, No Iterations 61
DICPCG:  Solving for p, Initial residual = 0.00315089, Final residual = 0.000150784, No Iterations 155
time step continuity errors : sum local = 2.17996e-08, global = -2.37782e-20, cumulative = 1.22925e-18
DICPCG:  Solving for p, Initial residual = 0.00300834, Final residual = 9.50357e-07, No Iterations 234
time step continuity errors : sum local = 1.37771e-10, global = -1.18389e-20, cumulative = 1.21741e-18
ExecutionTime = 28.88 s  ClockTime = 29 s

Time = 0.05875

Courant Number mean: 0.221813 max: 0.981416
smoothSolver:  Solving for Ux, Initial residual = 0.000154079, Final residual = 9.87801e-06, No Iterations 43
smoothSolver:  Solving for Uy, Initial residual = 0.000449499, Final residual = 9.79551e-06, No Iterations 60
DICPCG:  Solving for p, Initial residual = 0.00332889, Final residual = 0.00016049, No Iterations 156
time step continuity errors : sum local = 2.32234e-08, global = -9.2881e-20, cumulative = 1.12453e-18
DICPCG:  Solving for p, Initial residual = 0.00316472, Final residual = 9.76658e-07, No Iterations 234
time step continuity errors : sum local = 1.41574e-10, global = 5.84388e-20, cumulative = 1.18297e-18
ExecutionTime = 29.13 s  ClockTime = 29 s

Time = 0.059375

Courant Number mean: 0.22194 max: 0.981429
smoothSolver:  Solving for Ux, Initial residual = 0.000149634, Final residual = 9.61251e-06, No Iterations 43
smoothSolver:  Solving for Uy, Initial residual = 0.000437519, Final residual = 9.62108e-06, No Iterations 60
DICPCG:  Solving for p, Initial residual = 0.003659, Final residual = 0.000176282, No Iterations 177
time step continuity errors : sum local = 2.5538e-08, global = 9.13453e-21, cumulative = 1.1921e-18
DICPCG:  Solving for p, Initial residual = 0.00353195, Final residual = 9.65031e-07, No Iterations 229
time step continuity errors : sum local = 1.39789e-10, global = 1.1859e-19, cumulative = 1.31069e-18
ExecutionTime = 29.39 s  ClockTime = 29 s

Time = 0.06

Courant Number mean: 0.222064 max: 0.981437
smoothSolver:  Solving for Ux, Initial residual = 0.000142714, Final residual = 9.79791e-06, No Iterations 42
smoothSolver:  Solving for Uy, Initial residual = 0.000422152, Final residual = 9.81223e-06, No Iterations 59
DICPCG:  Solving for p, Initial residual = 0.0033335, Final residual = 0.000141287, No Iterations 184
time step continuity errors : sum local = 2.04713e-08, global = 1.23318e-19, cumulative = 1.43401e-18
DICPCG:  Solving for p, Initial residual = 0.00321975, Final residual = 9.28655e-07, No Iterations 234
time step continuity errors : sum local = 1.3434e-10, global = -8.89616e-20, cumulative = 1.34505e-18
ExecutionTime = 29.65 s  ClockTime = 29 s

Time = 0.060625

Courant Number mean: 0.222183 max: 0.981443
smoothSolver:  Solving for Ux, Initial residual = 0.00013901, Final residual = 9.53915e-06, No Iterations 42
smoothSolver:  Solving for Uy, Initial residual = 0.000406253, Final residual = 9.54109e-06, No Iterations 59
DICPCG:  Solving for p, Initial residual = 0.00273475, Final residual = 0.000134417, No Iterations 153
time step continuity errors : sum local = 1.94337e-08, global = -1.93693e-19, cumulative = 1.15136e-18
DICPCG:  Solving for p, Initial residual = 0.00263223, Final residual = 8.87844e-07, No Iterations 233
time step continuity errors : sum local = 1.28515e-10, global = 1.73446e-19, cumulative = 1.3248e-18
ExecutionTime = 29.89 s  ClockTime = 30 s

Time = 0.06125

Courant Number mean: 0.222299 max: 0.98145
smoothSolver:  Solving for Ux, Initial residual = 0.000133277, Final residual = 9.81235e-06, No Iterations 41
smoothSolver:  Solving for Uy, Initial residual = 0.000390016, Final residual = 9.79894e-06, No Iterations 58
DICPCG:  Solving for p, Initial residual = 0.00230454, Final residual = 0.000106026, No Iterations 172
time step continuity errors : sum local = 1.53428e-08, global = -1.29625e-19, cumulative = 1.19518e-18
DICPCG:  Solving for p, Initial residual = 0.00221668, Final residual = 9.31409e-07, No Iterations 223
time step continuity errors : sum local = 1.34673e-10, global = -3.13991e-20, cumulative = 1.16378e-18
ExecutionTime = 30.14 s  ClockTime = 30 s

Time = 0.061875

Courant Number mean: 0.22241 max: 0.981456
smoothSolver:  Solving for Ux, Initial residual = 0.000128706, Final residual = 9.51637e-06, No Iterations 41
smoothSolver:  Solving for Uy, Initial residual = 0.000378956, Final residual = 9.53773e-06, No Iterations 58
DICPCG:  Solving for p, Initial residual = 0.00207811, Final residual = 0.000102645, No Iterations 152
time step continuity errors : sum local = 1.48748e-08, global = -7.63692e-21, cumulative = 1.15614e-18
DICPCG:  Solving for p, Initial residual = 0.00200954, Final residual = 9.8909e-07, No Iterations 228
time step continuity errors : sum local = 1.42976e-10, global = 4.71318e-20, cumulative = 1.20327e-18
ExecutionTime = 30.38 s  ClockTime = 30 s

Time = 0.0625

Courant Number mean: 0.222518 max: 0.981463
smoothSolver:  Solving for Ux, Initial residual = 0.000125413, Final residual = 9.89752e-06, No Iterations 40
smoothSolver:  Solving for Uy, Initial residual = 0.000365071, Final residual = 9.81324e-06, No Iterations 57
DICPCG:  Solving for p, Initial residual = 0.00192253, Final residual = 9.55511e-05, No Iterations 179
time step continuity errors : sum local = 1.38236e-08, global = -2.67355e-20, cumulative = 1.17654e-18
DICPCG:  Solving for p, Initial residual = 0.00185511, Final residual = 9.849e-07, No Iterations 221
time step continuity errors : sum local = 1.42671e-10, global = -1.04826e-19, cumulative = 1.07171e-18
ExecutionTime = 30.7 s  ClockTime = 30 s

Time = 0.063125

Courant Number mean: 0.222622 max: 0.981473
smoothSolver:  Solving for Ux, Initial residual = 0.000121053, Final residual = 9.53025e-06, No Iterations 40
smoothSolver:  Solving for Uy, Initial residual = 0.000353684, Final residual = 9.527e-06, No Iterations 57
DICPCG:  Solving for p, Initial residual = 0.00171865, Final residual = 8.3735e-05, No Iterations 155
time step continuity errors : sum local = 1.21828e-08, global = -9.09633e-20, cumulative = 9.80749e-19
DICPCG:  Solving for p, Initial residual = 0.0016562, Final residual = 9.85819e-07, No Iterations 229
time step continuity errors : sum local = 1.4257e-10, global = -3.58399e-20, cumulative = 9.4491e-19
ExecutionTime = 30.94 s  ClockTime = 31 s

Time = 0.06375

Courant Number mean: 0.222723 max: 0.981476
smoothSolver:  Solving for Ux, Initial residual = 0.000117203, Final residual = 9.87635e-06, No Iterations 39
smoothSolver:  Solving for Uy, Initial residual = 0.000340292, Final residual = 9.77756e-06, No Iterations 56
DICPCG:  Solving for p, Initial residual = 0.00168137, Final residual = 8.01396e-05, No Iterations 87
time step continuity errors : sum local = 1.23391e-08, global = -6.25836e-20, cumulative = 8.82326e-19
DICPCG:  Solving for p, Initial residual = 0.00163013, Final residual = 8.80499e-07, No Iterations 219
time step continuity errors : sum local = 1.27393e-10, global = -1.8975e-19, cumulative = 6.92576e-19
ExecutionTime = 31.15 s  ClockTime = 31 s

Time = 0.064375

Courant Number mean: 0.222821 max: 0.981481
smoothSolver:  Solving for Ux, Initial residual = 0.000116757, Final residual = 9.79717e-06, No Iterations 39
smoothSolver:  Solving for Uy, Initial residual = 0.000325214, Final residual = 9.92148e-06, No Iterations 55
DICPCG:  Solving for p, Initial residual = 0.00167387, Final residual = 7.53745e-05, No Iterations 183
time step continuity errors : sum local = 1.09029e-08, global = -1.17852e-19, cumulative = 5.74724e-19
DICPCG:  Solving for p, Initial residual = 0.00162788, Final residual = 9.35622e-07, No Iterations 223
time step continuity errors : sum local = 1.35243e-10, global = -9.4187e-20, cumulative = 4.80537e-19
ExecutionTime = 31.39 s  ClockTime = 31 s

Time = 0.065

Courant Number mean: 0.222915 max: 0.981489
smoothSolver:  Solving for Ux, Initial residual = 0.000109484, Final residual = 9.74648e-06, No Iterations 38
smoothSolver:  Solving for Uy, Initial residual = 0.000326634, Final residual = 9.95549e-06, No Iterations 55
DICPCG:  Solving for p, Initial residual = 0.00158804, Final residual = 7.21635e-05, No Iterations 155
time step continuity errors : sum local = 1.04349e-08, global = 7.90046e-21, cumulative = 4.88438e-19
DICPCG:  Solving for p, Initial residual = 0.00154179, Final residual = 9.39614e-07, No Iterations 229
time step continuity errors : sum local = 1.35891e-10, global = 3.69514e-20, cumulative = 5.25389e-19
ExecutionTime = 31.64 s  ClockTime = 31 s

Time = 0.065625

Courant Number mean: 0.223007 max: 0.981495
smoothSolver:  Solving for Ux, Initial residual = 0.000107687, Final residual = 9.64047e-06, No Iterations 38
smoothSolver:  Solving for Uy, Initial residual = 0.000310939, Final residual = 9.47572e-06, No Iterations 55
DICPCG:  Solving for p, Initial residual = 0.00146213, Final residual = 6.84655e-05, No Iterations 174
time step continuity errors : sum local = 9.89645e-09, global = 3.08632e-20, cumulative = 5.56252e-19
DICPCG:  Solving for p, Initial residual = 0.00141761, Final residual = 9.75069e-07, No Iterations 220
time step continuity errors : sum local = 1.412e-10, global = 6.59396e-20, cumulative = 6.22192e-19
ExecutionTime = 31.88 s  ClockTime = 32 s

Time = 0.06625

Courant Number mean: 0.223095 max: 0.9815
smoothSolver:  Solving for Ux, Initial residual = 0.000103383, Final residual = 9.88102e-06, No Iterations 37
smoothSolver:  Solving for Uy, Initial residual = 0.000302235, Final residual = 9.85979e-06, No Iterations 54
DICPCG:  Solving for p, Initial residual = 0.00134296, Final residual = 6.29479e-05, No Iterations 153
time step continuity errors : sum local = 9.10488e-09, global = 1.75542e-20, cumulative = 6.39746e-19
DICPCG:  Solving for p, Initial residual = 0.00130631, Final residual = 9.93775e-07, No Iterations 212
time step continuity errors : sum local = 1.43892e-10, global = -1.26998e-19, cumulative = 5.12748e-19
ExecutionTime = 32.11 s  ClockTime = 32 s

Time = 0.066875

Courant Number mean: 0.22318 max: 0.981505
smoothSolver:  Solving for Ux, Initial residual = 0.000100171, Final residual = 9.58723e-06, No Iterations 37
smoothSolver:  Solving for Uy, Initial residual = 0.000291352, Final residual = 9.49511e-06, No Iterations 54
DICPCG:  Solving for p, Initial residual = 0.00135285, Final residual = 6.72088e-05, No Iterations 93
time step continuity errors : sum local = 1.14226e-08, global = -4.70486e-20, cumulative = 4.65699e-19
DICPCG:  Solving for p, Initial residual = 0.0013225, Final residual = 9.42428e-07, No Iterations 214
time step continuity errors : sum local = 1.36221e-10, global = 1.38717e-20, cumulative = 4.79571e-19
ExecutionTime = 32.32 s  ClockTime = 32 s

Time = 0.0675

Courant Number mean: 0.223263 max: 0.98151
smoothSolver:  Solving for Ux, Initial residual = 9.52655e-05, Final residual = 9.48123e-06, No Iterations 36
smoothSolver:  Solving for Uy, Initial residual = 0.000308199, Final residual = 9.85251e-06, No Iterations 54
DICPCG:  Solving for p, Initial residual = 0.00183356, Final residual = 7.85533e-05, No Iterations 187
time step continuity errors : sum local = 1.1357e-08, global = -7.06952e-20, cumulative = 4.08876e-19
DICPCG:  Solving for p, Initial residual = 0.00178572, Final residual = 9.33224e-07, No Iterations 225
time step continuity errors : sum local = 1.35283e-10, global = 4.85978e-20, cumulative = 4.57473e-19
ExecutionTime = 32.57 s  ClockTime = 32 s

Time = 0.068125

Courant Number mean: 0.223343 max: 0.981516
smoothSolver:  Solving for Ux, Initial residual = 0.000101326, Final residual = 9.92274e-06, No Iterations 36
smoothSolver:  Solving for Uy, Initial residual = 0.00028183, Final residual = 9.93304e-06, No Iterations 52
DICPCG:  Solving for p, Initial residual = 0.00194331, Final residual = 9.44703e-05, No Iterations 155
[...]
time step continuity errors : sum local = 1.31444e-10, global = 4.6403e-20, cumulative = 1.61639e-18
DICPCG:  Solving for p, Initial residual = 1.68627e-06, Final residual = 9.36655e-07, No Iterations 2
time step continuity errors : sum local = 1.36616e-10, global = 9.79127e-20, cumulative = 1.7143e-18
ExecutionTime = 91.15 s  ClockTime = 91 s

Time = 0.48375

Courant Number mean: 0.225832 max: 0.98166
smoothSolver:  Solving for Ux, Initial residual = 2.96878e-06, Final residual = 2.96878e-06, No Iterations 0
smoothSolver:  Solving for Uy, Initial residual = 7.68561e-06, Final residual = 7.68561e-06, No Iterations 0
DICPCG:  Solving for p, Initial residual = 1.75094e-06, Final residual = 8.26053e-07, No Iterations 14
time step continuity errors : sum local = 1.20176e-10, global = 2.94871e-20, cumulative = 1.74379e-18
DICPCG:  Solving for p, Initial residual = 1.56885e-06, Final residual = 9.72256e-07, No Iterations 9
time step continuity errors : sum local = 1.41727e-10, global = 8.49544e-20, cumulative = 1.82874e-18
ExecutionTime = 91.19 s  ClockTime = 91 s

Time = 0.484375

Courant Number mean: 0.225832 max: 0.98166
smoothSolver:  Solving for Ux, Initial residual = 2.98424e-06, Final residual = 2.98424e-06, No Iterations 0
smoothSolver:  Solving for Uy, Initial residual = 7.58313e-06, Final residual = 7.58313e-06, No Iterations 0
DICPCG:  Solving for p, Initial residual = 1.73756e-06, Final residual = 9.6976e-07, No Iterations 6
time step continuity errors : sum local = 1.41334e-10, global = 1.68176e-19, cumulative = 1.99692e-18
DICPCG:  Solving for p, Initial residual = 1.81146e-06, Final residual = 9.52373e-07, No Iterations 14
time step continuity errors : sum local = 1.38455e-10, global = 4.6758e-21, cumulative = 2.00159e-18
ExecutionTime = 91.21 s  ClockTime = 91 s

Time = 0.485

Courant Number mean: 0.225832 max: 0.98166
smoothSolver:  Solving for Ux, Initial residual = 2.97636e-06, Final residual = 2.97636e-06, No Iterations 0
smoothSolver:  Solving for Uy, Initial residual = 7.68018e-06, Final residual = 7.68018e-06, No Iterations 0
DICPCG:  Solving for p, Initial residual = 1.77787e-06, Final residual = 9.41315e-07, No Iterations 5
time step continuity errors : sum local = 1.37152e-10, global = -1.56565e-20, cumulative = 1.98594e-18
DICPCG:  Solving for p, Initial residual = 1.76313e-06, Final residual = 9.18021e-07, No Iterations 3
time step continuity errors : sum local = 1.33188e-10, global = 1.55913e-19, cumulative = 2.14185e-18
ExecutionTime = 91.22 s  ClockTime = 91 s

Time = 0.485625

Courant Number mean: 0.225832 max: 0.98166
smoothSolver:  Solving for Ux, Initial residual = 2.96552e-06, Final residual = 2.96552e-06, No Iterations 0
smoothSolver:  Solving for Uy, Initial residual = 7.66563e-06, Final residual = 7.66563e-06, No Iterations 0
DICPCG:  Solving for p, Initial residual = 1.77793e-06, Final residual = 7.34304e-07, No Iterations 14
time step continuity errors : sum local = 1.07402e-10, global = 2.14688e-20, cumulative = 2.16332e-18
DICPCG:  Solving for p, Initial residual = 1.41077e-06, Final residual = 9.78043e-07, No Iterations 8
time step continuity errors : sum local = 1.42547e-10, global = -1.05161e-19, cumulative = 2.05816e-18
ExecutionTime = 91.24 s  ClockTime = 91 s

Time = 0.48625

Courant Number mean: 0.225832 max: 0.98166
smoothSolver:  Solving for Ux, Initial residual = 2.94785e-06, Final residual = 2.94785e-06, No Iterations 0
smoothSolver:  Solving for Uy, Initial residual = 7.7073e-06, Final residual = 7.7073e-06, No Iterations 0
DICPCG:  Solving for p, Initial residual = 1.82337e-06, Final residual = 8.79274e-07, No Iterations 4
time step continuity errors : sum local = 1.2803e-10, global = -3.14184e-20, cumulative = 2.02674e-18
DICPCG:  Solving for p, Initial residual = 1.74747e-06, Final residual = 8.88781e-07, No Iterations 3
time step continuity errors : sum local = 1.2967e-10, global = 1.14109e-19, cumulative = 2.14085e-18
ExecutionTime = 91.25 s  ClockTime = 91 s

Time = 0.486875

Courant Number mean: 0.225832 max: 0.98166
smoothSolver:  Solving for Ux, Initial residual = 2.94377e-06, Final residual = 2.94377e-06, No Iterations 0
smoothSolver:  Solving for Uy, Initial residual = 7.68755e-06, Final residual = 7.68755e-06, No Iterations 0
DICPCG:  Solving for p, Initial residual = 1.68718e-06, Final residual = 8.48742e-07, No Iterations 12
time step continuity errors : sum local = 1.24535e-10, global = 5.71306e-20, cumulative = 2.19798e-18
DICPCG:  Solving for p, Initial residual = 1.6565e-06, Final residual = 8.80281e-07, No Iterations 7
time step continuity errors : sum local = 1.28268e-10, global = 3.35946e-20, cumulative = 2.23157e-18
ExecutionTime = 91.27 s  ClockTime = 91 s

Time = 0.4875

Courant Number mean: 0.225832 max: 0.98166
smoothSolver:  Solving for Ux, Initial residual = 2.94866e-06, Final residual = 2.94866e-06, No Iterations 0
smoothSolver:  Solving for Uy, Initial residual = 7.64211e-06, Final residual = 7.64211e-06, No Iterations 0
DICPCG:  Solving for p, Initial residual = 1.6489e-06, Final residual = 8.14775e-07, No Iterations 4
time step continuity errors : sum local = 1.18857e-10, global = 3.82965e-21, cumulative = 2.2354e-18
DICPCG:  Solving for p, Initial residual = 1.65266e-06, Final residual = 9.44279e-07, No Iterations 10
time step continuity errors : sum local = 1.38038e-10, global = -8.35503e-20, cumulative = 2.15185e-18
ExecutionTime = 91.35 s  ClockTime = 91 s

Time = 0.488125

Courant Number mean: 0.225832 max: 0.98166
smoothSolver:  Solving for Ux, Initial residual = 2.94253e-06, Final residual = 2.94253e-06, No Iterations 0
smoothSolver:  Solving for Uy, Initial residual = 7.63508e-06, Final residual = 7.63508e-06, No Iterations 0
DICPCG:  Solving for p, Initial residual = 1.70518e-06, Final residual = 8.07183e-07, No Iterations 6
time step continuity errors : sum local = 1.17714e-10, global = 6.26862e-20, cumulative = 2.21454e-18
DICPCG:  Solving for p, Initial residual = 1.5242e-06, Final residual = 8.23496e-07, No Iterations 3
time step continuity errors : sum local = 1.19673e-10, global = -1.44248e-19, cumulative = 2.07029e-18
ExecutionTime = 91.36 s  ClockTime = 91 s

Time = 0.48875

Courant Number mean: 0.225832 max: 0.98166
smoothSolver:  Solving for Ux, Initial residual = 2.94848e-06, Final residual = 2.94848e-06, No Iterations 0
smoothSolver:  Solving for Uy, Initial residual = 7.62754e-06, Final residual = 7.62754e-06, No Iterations 0
DICPCG:  Solving for p, Initial residual = 1.60843e-06, Final residual = 7.61956e-07, No Iterations 2
time step continuity errors : sum local = 1.10682e-10, global = -9.66372e-20, cumulative = 1.97365e-18
DICPCG:  Solving for p, Initial residual = 1.49186e-06, Final residual = 8.9171e-07, No Iterations 2
time step continuity errors : sum local = 1.29685e-10, global = -8.55836e-21, cumulative = 1.96509e-18
ExecutionTime = 91.39 s  ClockTime = 91 s

Time = 0.489375

Courant Number mean: 0.225832 max: 0.98166
smoothSolver:  Solving for Ux, Initial residual = 2.94274e-06, Final residual = 2.94274e-06, No Iterations 0
smoothSolver:  Solving for Uy, Initial residual = 7.61481e-06, Final residual = 7.61481e-06, No Iterations 0
DICPCG:  Solving for p, Initial residual = 1.58657e-06, Final residual = 9.16653e-07, No Iterations 2
time step continuity errors : sum local = 1.33163e-10, global = 9.26006e-20, cumulative = 2.05769e-18
DICPCG:  Solving for p, Initial residual = 1.6513e-06, Final residual = 9.13584e-07, No Iterations 1
time step continuity errors : sum local = 1.32859e-10, global = 1.12777e-19, cumulative = 2.17047e-18
ExecutionTime = 91.4 s  ClockTime = 91 s

Time = 0.49

Courant Number mean: 0.225832 max: 0.98166
smoothSolver:  Solving for Ux, Initial residual = 2.93852e-06, Final residual = 2.93852e-06, No Iterations 0
smoothSolver:  Solving for Uy, Initial residual = 7.60396e-06, Final residual = 7.60396e-06, No Iterations 0
DICPCG:  Solving for p, Initial residual = 1.37022e-06, Final residual = 7.57543e-07, No Iterations 1
time step continuity errors : sum local = 1.103e-10, global = -1.54896e-19, cumulative = 2.01558e-18
DICPCG:  Solving for p, Initial residual = 8.8604e-07, Final residual = 8.8604e-07, No Iterations 0
time step continuity errors : sum local = 1.28861e-10, global = 1.33277e-19, cumulative = 2.14885e-18
ExecutionTime = 91.41 s  ClockTime = 91 s

Time = 0.490625

Courant Number mean: 0.225833 max: 0.98166
smoothSolver:  Solving for Ux, Initial residual = 2.93583e-06, Final residual = 2.93583e-06, No Iterations 0
smoothSolver:  Solving for Uy, Initial residual = 7.59593e-06, Final residual = 7.59593e-06, No Iterations 0
DICPCG:  Solving for p, Initial residual = 1.0333e-06, Final residual = 7.91124e-07, No Iterations 1
time step continuity errors : sum local = 1.15194e-10, global = -1.26852e-19, cumulative = 2.022e-18
DICPCG:  Solving for p, Initial residual = 9.67361e-07, Final residual = 9.67361e-07, No Iterations 0
time step continuity errors : sum local = 1.40655e-10, global = -6.41169e-20, cumulative = 1.95788e-18
ExecutionTime = 91.42 s  ClockTime = 91 s

Time = 0.49125

Courant Number mean: 0.225833 max: 0.98166
smoothSolver:  Solving for Ux, Initial residual = 2.93336e-06, Final residual = 2.93336e-06, No Iterations 0
smoothSolver:  Solving for Uy, Initial residual = 7.5888e-06, Final residual = 7.5888e-06, No Iterations 0
DICPCG:  Solving for p, Initial residual = 1.12137e-06, Final residual = 8.70746e-07, No Iterations 1
time step continuity errors : sum local = 1.26723e-10, global = 3.21896e-20, cumulative = 1.99007e-18
DICPCG:  Solving for p, Initial residual = 1.06719e-06, Final residual = 9.16316e-07, No Iterations 1
time step continuity errors : sum local = 1.33325e-10, global = 9.26158e-20, cumulative = 2.08269e-18
ExecutionTime = 91.43 s  ClockTime = 91 s

Time = 0.491875

Courant Number mean: 0.225833 max: 0.98166
smoothSolver:  Solving for Ux, Initial residual = 2.93023e-06, Final residual = 2.93023e-06, No Iterations 0
smoothSolver:  Solving for Uy, Initial residual = 7.58083e-06, Final residual = 7.58083e-06, No Iterations 0
DICPCG:  Solving for p, Initial residual = 1.05468e-06, Final residual = 9.4167e-07, No Iterations 1
time step continuity errors : sum local = 1.37009e-10, global = -1.56569e-20, cumulative = 2.06703e-18
DICPCG:  Solving for p, Initial residual = 1.10191e-06, Final residual = 9.44279e-07, No Iterations 1
time step continuity errors : sum local = 1.37409e-10, global = -5.81892e-20, cumulative = 2.00884e-18
ExecutionTime = 91.44 s  ClockTime = 92 s

Time = 0.4925

Courant Number mean: 0.225833 max: 0.98166
smoothSolver:  Solving for Ux, Initial residual = 2.92687e-06, Final residual = 2.92687e-06, No Iterations 0
smoothSolver:  Solving for Uy, Initial residual = 7.57268e-06, Final residual = 7.57268e-06, No Iterations 0
DICPCG:  Solving for p, Initial residual = 1.10737e-06, Final residual = 9.85e-07, No Iterations 1
time step continuity errors : sum local = 1.43315e-10, global = -3.9149e-20, cumulative = 1.96969e-18
DICPCG:  Solving for p, Initial residual = 1.16198e-06, Final residual = 8.9171e-07, No Iterations 7
time step continuity errors : sum local = 1.31269e-10, global = -1.92007e-19, cumulative = 1.77769e-18
ExecutionTime = 91.46 s  ClockTime = 92 s

Time = 0.493125

Courant Number mean: 0.225833 max: 0.98166
smoothSolver:  Solving for Ux, Initial residual = 2.87024e-06, Final residual = 2.87024e-06, No Iterations 0
smoothSolver:  Solving for Uy, Initial residual = 7.52648e-06, Final residual = 7.52648e-06, No Iterations 0
DICPCG:  Solving for p, Initial residual = 1.82614e-06, Final residual = 8.43731e-07, No Iterations 8
time step continuity errors : sum local = 1.24199e-10, global = -5.93634e-20, cumulative = 1.71832e-18
DICPCG:  Solving for p, Initial residual = 1.73414e-06, Final residual = 9.91137e-07, No Iterations 11
time step continuity errors : sum local = 1.46398e-10, global = 8.79497e-20, cumulative = 1.80627e-18
ExecutionTime = 91.48 s  ClockTime = 92 s

Time = 0.49375

Courant Number mean: 0.225833 max: 0.98166
smoothSolver:  Solving for Ux, Initial residual = 2.89677e-06, Final residual = 2.89677e-06, No Iterations 0
smoothSolver:  Solving for Uy, Initial residual = 7.65198e-06, Final residual = 7.65198e-06, No Iterations 0
DICPCG:  Solving for p, Initial residual = 1.81081e-06, Final residual = 9.57972e-07, No Iterations 6
time step continuity errors : sum local = 1.41216e-10, global = -2.21833e-19, cumulative = 1.58444e-18
DICPCG:  Solving for p, Initial residual = 1.86993e-06, Final residual = 7.27432e-07, No Iterations 3
time step continuity errors : sum local = 1.07999e-10, global = -5.1938e-20, cumulative = 1.5325e-18
ExecutionTime = 91.5 s  ClockTime = 92 s

Time = 0.494375

Courant Number mean: 0.225833 max: 0.98166
smoothSolver:  Solving for Ux, Initial residual = 2.90184e-06, Final residual = 2.90184e-06, No Iterations 0
smoothSolver:  Solving for Uy, Initial residual = 7.6411e-06, Final residual = 7.6411e-06, No Iterations 0
DICPCG:  Solving for p, Initial residual = 1.47953e-06, Final residual = 8.31743e-07, No Iterations 2
time step continuity errors : sum local = 1.23027e-10, global = -8.35351e-20, cumulative = 1.44897e-18
DICPCG:  Solving for p, Initial residual = 1.56477e-06, Final residual = 9.34289e-07, No Iterations 1
time step continuity errors : sum local = 1.37852e-10, global = 6.56508e-21, cumulative = 1.45553e-18
ExecutionTime = 91.51 s  ClockTime = 92 s

Time = 0.495

Courant Number mean: 0.225833 max: 0.98166
smoothSolver:  Solving for Ux, Initial residual = 2.90013e-06, Final residual = 2.90013e-06, No Iterations 0
smoothSolver:  Solving for Uy, Initial residual = 7.6309e-06, Final residual = 7.6309e-06, No Iterations 0
DICPCG:  Solving for p, Initial residual = 1.35257e-06, Final residual = 9.49444e-07, No Iterations 1
time step continuity errors : sum local = 1.40064e-10, global = 3.56208e-20, cumulative = 1.49115e-18
DICPCG:  Solving for p, Initial residual = 1.23383e-06, Final residual = 9.32898e-07, No Iterations 9
time step continuity errors : sum local = 1.36446e-10, global = 1.61484e-20, cumulative = 1.5073e-18
ExecutionTime = 91.53 s  ClockTime = 92 s

Time = 0.495625

Courant Number mean: 0.225833 max: 0.98166
smoothSolver:  Solving for Ux, Initial residual = 2.8697e-06, Final residual = 2.8697e-06, No Iterations 0
smoothSolver:  Solving for Uy, Initial residual = 7.46635e-06, Final residual = 7.46635e-06, No Iterations 0
DICPCG:  Solving for p, Initial residual = 1.84268e-06, Final residual = 9.66679e-07, No Iterations 6
time step continuity errors : sum local = 1.40492e-10, global = 6.09222e-20, cumulative = 1.56822e-18
DICPCG:  Solving for p, Initial residual = 2.002e-06, Final residual = 9.48581e-07, No Iterations 8
time step continuity errors : sum local = 1.36913e-10, global = 3.14856e-20, cumulative = 1.59971e-18
ExecutionTime = 91.54 s  ClockTime = 92 s

Time = 0.49625

Courant Number mean: 0.225833 max: 0.98166
smoothSolver:  Solving for Ux, Initial residual = 2.91029e-06, Final residual = 2.91029e-06, No Iterations 0
smoothSolver:  Solving for Uy, Initial residual = 7.51183e-06, Final residual = 7.51183e-06, No Iterations 0
DICPCG:  Solving for p, Initial residual = 1.75661e-06, Final residual = 9.60684e-07, No Iterations 5
time step continuity errors : sum local = 1.39157e-10, global = -1.12971e-19, cumulative = 1.48674e-18
DICPCG:  Solving for p, Initial residual = 1.73249e-06, Final residual = 8.63372e-07, No Iterations 3
time step continuity errors : sum local = 1.25815e-10, global = -6.09346e-20, cumulative = 1.4258e-18
ExecutionTime = 91.56 s  ClockTime = 92 s

Time = 0.496875

Courant Number mean: 0.225833 max: 0.98166
smoothSolver:  Solving for Ux, Initial residual = 2.91898e-06, Final residual = 2.91898e-06, No Iterations 0
smoothSolver:  Solving for Uy, Initial residual = 7.52392e-06, Final residual = 7.52392e-06, No Iterations 0
DICPCG:  Solving for p, Initial residual = 1.58683e-06, Final residual = 8.85589e-07, No Iterations 2
time step continuity errors : sum local = 1.28802e-10, global = -6.166e-20, cumulative = 1.36414e-18
DICPCG:  Solving for p, Initial residual = 1.60808e-06, Final residual = 8.96577e-07, No Iterations 2
time step continuity errors : sum local = 1.30575e-10, global = -3.36049e-20, cumulative = 1.33054e-18
ExecutionTime = 91.57 s  ClockTime = 92 s

Time = 0.4975

Courant Number mean: 0.225833 max: 0.98166
smoothSolver:  Solving for Ux, Initial residual = 2.91586e-06, Final residual = 2.91586e-06, No Iterations 0
smoothSolver:  Solving for Uy, Initial residual = 7.5165e-06, Final residual = 7.5165e-06, No Iterations 0
DICPCG:  Solving for p, Initial residual = 1.59643e-06, Final residual = 8.26113e-07, No Iterations 14
time step continuity errors : sum local = 1.21077e-10, global = 1.26633e-19, cumulative = 1.45717e-18
DICPCG:  Solving for p, Initial residual = 1.53602e-06, Final residual = 8.38097e-07, No Iterations 8
time step continuity errors : sum local = 1.23321e-10, global = -6.10881e-20, cumulative = 1.39608e-18
ExecutionTime = 91.59 s  ClockTime = 92 s

Time = 0.498125

Courant Number mean: 0.225833 max: 0.98166
smoothSolver:  Solving for Ux, Initial residual = 2.89649e-06, Final residual = 2.89649e-06, No Iterations 0
smoothSolver:  Solving for Uy, Initial residual = 7.54345e-06, Final residual = 7.54345e-06, No Iterations 0
DICPCG:  Solving for p, Initial residual = 1.5638e-06, Final residual = 8.90734e-07, No Iterations 7
time step continuity errors : sum local = 1.29756e-10, global = 7.42283e-20, cumulative = 1.47031e-18
DICPCG:  Solving for p, Initial residual = 1.57499e-06, Final residual = 9.78022e-07, No Iterations 10
time step continuity errors : sum local = 1.42823e-10, global = 2.41625e-20, cumulative = 1.49447e-18
ExecutionTime = 91.61 s  ClockTime = 92 s

Time = 0.49875

Courant Number mean: 0.225833 max: 0.98166
smoothSolver:  Solving for Ux, Initial residual = 2.89148e-06, Final residual = 2.89148e-06, No Iterations 0
smoothSolver:  Solving for Uy, Initial residual = 7.56327e-06, Final residual = 7.56327e-06, No Iterations 0
DICPCG:  Solving for p, Initial residual = 1.75623e-06, Final residual = 8.8499e-07, No Iterations 5
time step continuity errors : sum local = 1.29523e-10, global = 4.22286e-20, cumulative = 1.5367e-18
DICPCG:  Solving for p, Initial residual = 1.72111e-06, Final residual = 6.13626e-07, No Iterations 3
time step continuity errors : sum local = 9.01413e-11, global = 1.3023e-19, cumulative = 1.66693e-18
ExecutionTime = 91.62 s  ClockTime = 92 s

Time = 0.499375

Courant Number mean: 0.225834 max: 0.98166
smoothSolver:  Solving for Ux, Initial residual = 2.88122e-06, Final residual = 2.88122e-06, No Iterations 0
smoothSolver:  Solving for Uy, Initial residual = 7.53677e-06, Final residual = 7.53677e-06, No Iterations 0
DICPCG:  Solving for p, Initial residual = 1.16079e-06, Final residual = 7.49884e-07, No Iterations 1
time step continuity errors : sum local = 1.09418e-10, global = -3.02524e-20, cumulative = 1.63668e-18
DICPCG:  Solving for p, Initial residual = 1.2849e-06, Final residual = 7.92613e-07, No Iterations 1
time step continuity errors : sum local = 1.15653e-10, global = -5.82154e-20, cumulative = 1.57846e-18
ExecutionTime = 91.64 s  ClockTime = 92 s

Time = 0.5

Courant Number mean: 0.225834 max: 0.98166
smoothSolver:  Solving for Ux, Initial residual = 2.87835e-06, Final residual = 2.87835e-06, No Iterations 0
smoothSolver:  Solving for Uy, Initial residual = 7.52848e-06, Final residual = 7.52848e-06, No Iterations 0
DICPCG:  Solving for p, Initial residual = 1.15615e-06, Final residual = 9.82319e-07, No Iterations 1
time step continuity errors : sum local = 1.43012e-10, global = 4.77989e-20, cumulative = 1.62626e-18
DICPCG:  Solving for p, Initial residual = 1.24735e-06, Final residual = 9.97586e-07, No Iterations 1
time step continuity errors : sum local = 1.45214e-10, global = 6.22858e-20, cumulative = 1.68855e-18
ExecutionTime = 91.71 s  ClockTime = 92 s

End

