/*---------------------------------------------------------------------------*\
  =========                 |
  \\      /  F ield         | OpenFOAM: The Open Source CFD Toolbox
   \\    /   O peration     | Website:  https://openfoam.org
    \\  /    A nd           | Version:  7
     \\/     M anipulation  |
\*---------------------------------------------------------------------------*/
Build  : 7
Exec   : icoFoam
Date   : Feb 21 2024
Time   : 17:08:04
Host   : "c203-005.frontera.tacc.utexas.edu"
PID    : 219685
I/O    : uncollated
Case   : /work2/09042/mihiro10/frontera/COE-347-SP24/mainclassrepo/OpenFOAM/v7/cavity/cavity_160x160_re250
nProcs : 1
sigFpe : Enabling floating point exception trapping (FOAM_SIGFPE).
fileModificationChecking : Monitoring run-time modified files using timeStampMaster (fileModificationSkew 10)
allowSystemOperations : Allowing user-supplied system call operations

// * * * * * * * * * * * * * * * * * * * * * * * * * * * * * * * * * * * * * //
Create time

Create mesh for time = 0

Reading transportProperties

Reading field p

Reading field U

Reading/calculating face flux field phi


Starting time loop

Time = 0.000625

Courant Number mean: 0 max: 0
smoothSolver:  Solving for Ux, Initial residual = 1, Final residual = 4.19973e-06, No Iterations 9
smoothSolver:  Solving for Uy, Initial residual = 0, Final residual = 0, No Iterations 0
DICPCG:  Solving for p, Initial residual = 1, Final residual = 0.041884, No Iterations 201
time step continuity errors : sum local = 2.22134e-06, global = -2.92098e-21, cumulative = -2.92098e-21
DICPCG:  Solving for p, Initial residual = 0.407013, Final residual = 9.93002e-07, No Iterations 281
time step continuity errors : sum local = 1.01319e-10, global = -5.67407e-21, cumulative = -8.59505e-21
ExecutionTime = 0.39 s  ClockTime = 0 s

Time = 0.00125

Courant Number mean: 0.0102738 max: 0.464427
smoothSolver:  Solving for Ux, Initial residual = 0.244488, Final residual = 3.75803e-06, No Iterations 9
smoothSolver:  Solving for Uy, Initial residual = 0.323374, Final residual = 8.69453e-06, No Iterations 9
DICPCG:  Solving for p, Initial residual = 0.266943, Final residual = 0.012428, No Iterations 193
time step continuity errors : sum local = 1.19991e-06, global = -9.62728e-22, cumulative = -9.55778e-21
DICPCG:  Solving for p, Initial residual = 0.166123, Final residual = 9.40256e-07, No Iterations 273
time step continuity errors : sum local = 9.60383e-11, global = 4.21372e-20, cumulative = 3.25794e-20
ExecutionTime = 0.61 s  ClockTime = 1 s

Time = 0.001875

Courant Number mean: 0.0167244 max: 0.654549
smoothSolver:  Solving for Ux, Initial residual = 0.116818, Final residual = 6.41959e-06, No Iterations 8
smoothSolver:  Solving for Uy, Initial residual = 0.156448, Final residual = 4.30317e-06, No Iterations 9
DICPCG:  Solving for p, Initial residual = 0.127134, Final residual = 0.00614875, No Iterations 192
time step continuity errors : sum local = 6.21465e-07, global = 6.91326e-21, cumulative = 3.94927e-20
DICPCG:  Solving for p, Initial residual = 0.0802284, Final residual = 9.84791e-07, No Iterations 260
time step continuity errors : sum local = 1.0265e-10, global = -9.98326e-21, cumulative = 2.95094e-20
ExecutionTime = 0.83 s  ClockTime = 1 s

Time = 0.0025

Courant Number mean: 0.0213747 max: 0.742151
smoothSolver:  Solving for Ux, Initial residual = 0.0725568, Final residual = 4.32412e-06, No Iterations 8
smoothSolver:  Solving for Uy, Initial residual = 0.0966374, Final residual = 8.62557e-06, No Iterations 8
DICPCG:  Solving for p, Initial residual = 0.0740227, Final residual = 0.00353098, No Iterations 191
time step continuity errors : sum local = 3.73327e-07, global = 4.43143e-20, cumulative = 7.38237e-20
DICPCG:  Solving for p, Initial residual = 0.0476347, Final residual = 9.19646e-07, No Iterations 263
time step continuity errors : sum local = 9.92339e-11, global = -9.13182e-21, cumulative = 6.46919e-20
ExecutionTime = 1.05 s  ClockTime = 1 s

Time = 0.003125

Courant Number mean: 0.0250605 max: 0.788657
smoothSolver:  Solving for Ux, Initial residual = 0.0521713, Final residual = 3.30121e-06, No Iterations 8
smoothSolver:  Solving for Uy, Initial residual = 0.0686593, Final residual = 6.19741e-06, No Iterations 8
DICPCG:  Solving for p, Initial residual = 0.0502457, Final residual = 0.00214447, No Iterations 191
time step continuity errors : sum local = 2.34418e-07, global = 1.51382e-20, cumulative = 7.98301e-20
DICPCG:  Solving for p, Initial residual = 0.0332548, Final residual = 9.59531e-07, No Iterations 260
time step continuity errors : sum local = 1.06251e-10, global = -1.8072e-20, cumulative = 6.17581e-20
ExecutionTime = 1.27 s  ClockTime = 1 s

Time = 0.00375

Courant Number mean: 0.0281851 max: 0.816849
smoothSolver:  Solving for Ux, Initial residual = 0.0408179, Final residual = 8.81859e-06, No Iterations 7
smoothSolver:  Solving for Uy, Initial residual = 0.0531, Final residual = 4.83177e-06, No Iterations 8
DICPCG:  Solving for p, Initial residual = 0.0383103, Final residual = 0.00187671, No Iterations 98
time step continuity errors : sum local = 2.38048e-07, global = -3.07302e-20, cumulative = 3.10279e-20
DICPCG:  Solving for p, Initial residual = 0.0252632, Final residual = 9.93819e-07, No Iterations 257
time step continuity errors : sum local = 1.12519e-10, global = -1.54227e-20, cumulative = 1.56052e-20
ExecutionTime = 1.44 s  ClockTime = 2 s

Time = 0.004375

Courant Number mean: 0.0309175 max: 0.83587
smoothSolver:  Solving for Ux, Initial residual = 0.0335657, Final residual = 7.47846e-06, No Iterations 7
smoothSolver:  Solving for Uy, Initial residual = 0.0434874, Final residual = 3.979e-06, No Iterations 8
DICPCG:  Solving for p, Initial residual = 0.0325016, Final residual = 0.00145766, No Iterations 95
time step continuity errors : sum local = 1.7808e-07, global = -3.27597e-20, cumulative = -1.71545e-20
DICPCG:  Solving for p, Initial residual = 0.0208376, Final residual = 9.57351e-07, No Iterations 254
time step continuity errors : sum local = 1.09845e-10, global = -2.19782e-21, cumulative = -1.93523e-20
ExecutionTime = 1.62 s  ClockTime = 2 s

Time = 0.005

Courant Number mean: 0.0333682 max: 0.849752
smoothSolver:  Solving for Ux, Initial residual = 0.0286923, Final residual = 6.56604e-06, No Iterations 7
smoothSolver:  Solving for Uy, Initial residual = 0.036503, Final residual = 3.35514e-06, No Iterations 8
DICPCG:  Solving for p, Initial residual = 0.0274264, Final residual = 0.00123407, No Iterations 189
time step continuity errors : sum local = 1.42166e-07, global = 1.10883e-20, cumulative = -8.264e-21
DICPCG:  Solving for p, Initial residual = 0.0179194, Final residual = 9.23275e-07, No Iterations 253
time step continuity errors : sum local = 1.0672e-10, global = 1.35331e-20, cumulative = 5.26914e-21
ExecutionTime = 1.83 s  ClockTime = 2 s

Time = 0.005625

Courant Number mean: 0.0356122 max: 0.860465
smoothSolver:  Solving for Ux, Initial residual = 0.0249834, Final residual = 5.83016e-06, No Iterations 7
smoothSolver:  Solving for Uy, Initial residual = 0.0316563, Final residual = 9.3253e-06, No Iterations 7
DICPCG:  Solving for p, Initial residual = 0.0236752, Final residual = 0.00108865, No Iterations 94
time step continuity errors : sum local = 1.39405e-07, global = -8.41075e-21, cumulative = -3.14161e-21
DICPCG:  Solving for p, Initial residual = 0.0156547, Final residual = 9.91324e-07, No Iterations 251
time step continuity errors : sum local = 1.15927e-10, global = 1.86466e-21, cumulative = -1.27694e-21
ExecutionTime = 2.01 s  ClockTime = 2 s

Time = 0.00625

Courant Number mean: 0.0376765 max: 0.869063
smoothSolver:  Solving for Ux, Initial residual = 0.0221293, Final residual = 5.24776e-06, No Iterations 7
smoothSolver:  Solving for Uy, Initial residual = 0.0279771, Final residual = 8.26068e-06, No Iterations 7
DICPCG:  Solving for p, Initial residual = 0.0214574, Final residual = 0.00097831, No Iterations 93
time step continuity errors : sum local = 1.18523e-07, global = -3.48082e-20, cumulative = -3.60852e-20
DICPCG:  Solving for p, Initial residual = 0.0144387, Final residual = 9.81156e-07, No Iterations 250
time step continuity errors : sum local = 1.15569e-10, global = 5.95884e-20, cumulative = 2.35033e-20
ExecutionTime = 2.19 s  ClockTime = 2 s

Time = 0.006875

Courant Number mean: 0.0395972 max: 0.876169
smoothSolver:  Solving for Ux, Initial residual = 0.0199316, Final residual = 4.79613e-06, No Iterations 7
smoothSolver:  Solving for Uy, Initial residual = 0.0249284, Final residual = 7.37638e-06, No Iterations 7
DICPCG:  Solving for p, Initial residual = 0.0193149, Final residual = 0.000951631, No Iterations 93
time step continuity errors : sum local = 1.29393e-07, global = -1.06733e-20, cumulative = 1.283e-20
DICPCG:  Solving for p, Initial residual = 0.0133144, Final residual = 9.9942e-07, No Iterations 248
time step continuity errors : sum local = 1.18541e-10, global = 3.21723e-20, cumulative = 4.50023e-20
ExecutionTime = 2.35 s  ClockTime = 2 s

Time = 0.0075

Courant Number mean: 0.0414071 max: 0.882172
smoothSolver:  Solving for Ux, Initial residual = 0.0180563, Final residual = 4.39367e-06, No Iterations 7
smoothSolver:  Solving for Uy, Initial residual = 0.0226429, Final residual = 6.70942e-06, No Iterations 7
DICPCG:  Solving for p, Initial residual = 0.0180527, Final residual = 0.000824131, No Iterations 93
time step continuity errors : sum local = 1.11024e-07, global = 6.1045e-22, cumulative = 4.56127e-20
DICPCG:  Solving for p, Initial residual = 0.0122697, Final residual = 9.8826e-07, No Iterations 247
time step continuity errors : sum local = 1.17665e-10, global = -5.26648e-20, cumulative = -7.05208e-21
ExecutionTime = 2.52 s  ClockTime = 3 s

Time = 0.008125

Courant Number mean: 0.0431115 max: 0.887332
smoothSolver:  Solving for Ux, Initial residual = 0.0166095, Final residual = 4.08653e-06, No Iterations 7
smoothSolver:  Solving for Uy, Initial residual = 0.0205276, Final residual = 6.09049e-06, No Iterations 7
DICPCG:  Solving for p, Initial residual = 0.0164957, Final residual = 0.00075075, No Iterations 188
time step continuity errors : sum local = 8.94138e-08, global = -1.15074e-20, cumulative = -1.85595e-20
DICPCG:  Solving for p, Initial residual = 0.0111007, Final residual = 9.6304e-07, No Iterations 244
time step continuity errors : sum local = 1.14763e-10, global = -1.434e-20, cumulative = -3.28995e-20
ExecutionTime = 2.73 s  ClockTime = 3 s

Time = 0.00875

Courant Number mean: 0.0447213 max: 0.891831
smoothSolver:  Solving for Ux, Initial residual = 0.0152881, Final residual = 3.7954e-06, No Iterations 7
smoothSolver:  Solving for Uy, Initial residual = 0.0189191, Final residual = 5.62143e-06, No Iterations 7
DICPCG:  Solving for p, Initial residual = 0.0150751, Final residual = 0.000708276, No Iterations 92
time step continuity errors : sum local = 9.0507e-08, global = 3.06049e-20, cumulative = -2.29454e-21
DICPCG:  Solving for p, Initial residual = 0.0102046, Final residual = 8.96413e-07, No Iterations 246
time step continuity errors : sum local = 1.0754e-10, global = 1.53716e-20, cumulative = 1.3077e-20
ExecutionTime = 2.9 s  ClockTime = 3 s

Time = 0.009375

Courant Number mean: 0.0462559 max: 0.895798
smoothSolver:  Solving for Ux, Initial residual = 0.01418, Final residual = 3.54765e-06, No Iterations 7
smoothSolver:  Solving for Uy, Initial residual = 0.0175321, Final residual = 5.21327e-06, No Iterations 7
DICPCG:  Solving for p, Initial residual = 0.0143309, Final residual = 0.000625445, No Iterations 92
time step continuity errors : sum local = 7.62104e-08, global = -2.13258e-20, cumulative = -8.24872e-21
DICPCG:  Solving for p, Initial residual = 0.00989137, Final residual = 8.24791e-07, No Iterations 246
time step continuity errors : sum local = 9.93099e-11, global = -5.02355e-20, cumulative = -5.84842e-20
ExecutionTime = 3.06 s  ClockTime = 3 s

Time = 0.01

Courant Number mean: 0.0477258 max: 0.899332
smoothSolver:  Solving for Ux, Initial residual = 0.013244, Final residual = 3.33719e-06, No Iterations 7
smoothSolver:  Solving for Uy, Initial residual = 0.0162813, Final residual = 4.84521e-06, No Iterations 7
DICPCG:  Solving for p, Initial residual = 0.0133243, Final residual = 0.000613062, No Iterations 92
time step continuity errors : sum local = 8.17057e-08, global = 5.40005e-20, cumulative = -4.48377e-21
DICPCG:  Solving for p, Initial residual = 0.00929113, Final residual = 8.78973e-07, No Iterations 245
time step continuity errors : sum local = 1.06149e-10, global = 6.05946e-22, cumulative = -3.87782e-21
ExecutionTime = 3.23 s  ClockTime = 3 s

Time = 0.010625

Courant Number mean: 0.0491322 max: 0.902506
smoothSolver:  Solving for Ux, Initial residual = 0.0123921, Final residual = 3.1423e-06, No Iterations 7
smoothSolver:  Solving for Uy, Initial residual = 0.0152602, Final residual = 4.54325e-06, No Iterations 7
DICPCG:  Solving for p, Initial residual = 0.0127774, Final residual = 0.000549752, No Iterations 92
time step continuity errors : sum local = 7.15348e-08, global = 2.35158e-20, cumulative = 1.9638e-20
DICPCG:  Solving for p, Initial residual = 0.00881475, Final residual = 8.70877e-07, No Iterations 245
time step continuity errors : sum local = 1.05444e-10, global = 2.27494e-20, cumulative = 4.23874e-20
ExecutionTime = 3.41 s  ClockTime = 4 s

Time = 0.01125

Courant Number mean: 0.050479 max: 0.905376
smoothSolver:  Solving for Ux, Initial residual = 0.0116833, Final residual = 9.66568e-06, No Iterations 6
smoothSolver:  Solving for Uy, Initial residual = 0.0142767, Final residual = 4.25243e-06, No Iterations 7
DICPCG:  Solving for p, Initial residual = 0.0119866, Final residual = 0.000563795, No Iterations 93
time step continuity errors : sum local = 8.06848e-08, global = 3.54623e-21, cumulative = 4.59336e-20
DICPCG:  Solving for p, Initial residual = 0.00829172, Final residual = 9.98748e-07, No Iterations 235
time step continuity errors : sum local = 1.21247e-10, global = -3.93738e-20, cumulative = 6.55984e-21
ExecutionTime = 3.57 s  ClockTime = 4 s

Time = 0.011875

Courant Number mean: 0.051771 max: 0.907989
smoothSolver:  Solving for Ux, Initial residual = 0.0110008, Final residual = 9.13904e-06, No Iterations 6
smoothSolver:  Solving for Uy, Initial residual = 0.0135196, Final residual = 4.0278e-06, No Iterations 7
DICPCG:  Solving for p, Initial residual = 0.0116632, Final residual = 0.000549562, No Iterations 93
time step continuity errors : sum local = 7.86946e-08, global = 3.24098e-20, cumulative = 3.89697e-20
DICPCG:  Solving for p, Initial residual = 0.00804938, Final residual = 9.95318e-07, No Iterations 244
time step continuity errors : sum local = 1.21042e-10, global = -1.14266e-22, cumulative = 3.88554e-20
ExecutionTime = 3.74 s  ClockTime = 4 s

Time = 0.0125

Courant Number mean: 0.0530231 max: 0.91038
smoothSolver:  Solving for Ux, Initial residual = 0.0104634, Final residual = 8.7363e-06, No Iterations 6
smoothSolver:  Solving for Uy, Initial residual = 0.0126985, Final residual = 3.78366e-06, No Iterations 7
DICPCG:  Solving for p, Initial residual = 0.0110609, Final residual = 0.000544604, No Iterations 187
time step continuity errors : sum local = 6.63863e-08, global = -1.3771e-20, cumulative = 2.50844e-20
DICPCG:  Solving for p, Initial residual = 0.00762685, Final residual = 9.04846e-07, No Iterations 233
time step continuity errors : sum local = 1.10348e-10, global = 5.28801e-21, cumulative = 3.03724e-20
ExecutionTime = 4 s  ClockTime = 4 s

Time = 0.013125

Courant Number mean: 0.0542334 max: 0.912581
smoothSolver:  Solving for Ux, Initial residual = 0.00990722, Final residual = 8.30397e-06, No Iterations 6
smoothSolver:  Solving for Uy, Initial residual = 0.0120747, Final residual = 3.60037e-06, No Iterations 7
DICPCG:  Solving for p, Initial residual = 0.0104169, Final residual = 0.000495035, No Iterations 91
time step continuity errors : sum local = 6.32846e-08, global = -5.77766e-21, cumulative = 2.45948e-20
DICPCG:  Solving for p, Initial residual = 0.00714833, Final residual = 9.88388e-07, No Iterations 232
time step continuity errors : sum local = 1.20837e-10, global = 1.47843e-20, cumulative = 3.9379e-20
ExecutionTime = 4.17 s  ClockTime = 4 s

Time = 0.01375

Courant Number mean: 0.055403 max: 0.914613
smoothSolver:  Solving for Ux, Initial residual = 0.00942641, Final residual = 7.92898e-06, No Iterations 6
smoothSolver:  Solving for Uy, Initial residual = 0.011491, Final residual = 3.42668e-06, No Iterations 7
DICPCG:  Solving for p, Initial residual = 0.0100724, Final residual = 0.000457708, No Iterations 91
time step continuity errors : sum local = 5.6203e-08, global = -7.56861e-20, cumulative = -3.63071e-20
DICPCG:  Solving for p, Initial residual = 0.00706102, Final residual = 9.22497e-07, No Iterations 232
time step continuity errors : sum local = 1.13008e-10, global = 2.04973e-20, cumulative = -1.58099e-20
ExecutionTime = 4.33 s  ClockTime = 4 s

Time = 0.014375

Courant Number mean: 0.0565338 max: 0.916498
smoothSolver:  Solving for Ux, Initial residual = 0.00899826, Final residual = 7.59586e-06, No Iterations 6
smoothSolver:  Solving for Uy, Initial residual = 0.0109399, Final residual = 3.26282e-06, No Iterations 7
DICPCG:  Solving for p, Initial residual = 0.00961019, Final residual = 0.000454652, No Iterations 91
time step continuity errors : sum local = 5.95797e-08, global = -3.18552e-20, cumulative = -4.7665e-20
DICPCG:  Solving for p, Initial residual = 0.00677977, Final residual = 8.84064e-07, No Iterations 231
time step continuity errors : sum local = 1.0845e-10, global = -3.15718e-20, cumulative = -7.92368e-20
ExecutionTime = 4.49 s  ClockTime = 5 s

Time = 0.015

Courant Number mean: 0.0576283 max: 0.918254
smoothSolver:  Solving for Ux, Initial residual = 0.00859488, Final residual = 7.27707e-06, No Iterations 6
smoothSolver:  Solving for Uy, Initial residual = 0.0104649, Final residual = 9.9519e-06, No Iterations 6
DICPCG:  Solving for p, Initial residual = 0.00936641, Final residual = 0.000458724, No Iterations 90
time step continuity errors : sum local = 5.82728e-08, global = -2.81912e-21, cumulative = -8.2056e-20
DICPCG:  Solving for p, Initial residual = 0.00652357, Final residual = 8.67353e-07, No Iterations 231
time step continuity errors : sum local = 1.06627e-10, global = -9.57235e-21, cumulative = -9.16283e-20
ExecutionTime = 4.65 s  ClockTime = 5 s

Time = 0.015625

Courant Number mean: 0.0586934 max: 0.919893
smoothSolver:  Solving for Ux, Initial residual = 0.00824251, Final residual = 7.00073e-06, No Iterations 6
smoothSolver:  Solving for Uy, Initial residual = 0.00999676, Final residual = 9.50673e-06, No Iterations 6
DICPCG:  Solving for p, Initial residual = 0.00902038, Final residual = 0.000443171, No Iterations 91
time step continuity errors : sum local = 6.0472e-08, global = -3.18876e-20, cumulative = -1.23516e-19
DICPCG:  Solving for p, Initial residual = 0.00631584, Final residual = 8.62233e-07, No Iterations 230
time step continuity errors : sum local = 1.06023e-10, global = 6.4043e-20, cumulative = -5.94729e-20
ExecutionTime = 4.81 s  ClockTime = 5 s

Time = 0.01625

Courant Number mean: 0.0597318 max: 0.921429
smoothSolver:  Solving for Ux, Initial residual = 0.00789666, Final residual = 6.72294e-06, No Iterations 6
smoothSolver:  Solving for Uy, Initial residual = 0.00961237, Final residual = 9.1404e-06, No Iterations 6
DICPCG:  Solving for p, Initial residual = 0.00882684, Final residual = 0.000439532, No Iterations 90
time step continuity errors : sum local = 5.92434e-08, global = 1.65842e-20, cumulative = -4.28888e-20
DICPCG:  Solving for p, Initial residual = 0.00614291, Final residual = 9.209e-07, No Iterations 230
time step continuity errors : sum local = 1.13587e-10, global = 3.85432e-20, cumulative = -4.34558e-21
ExecutionTime = 4.98 s  ClockTime = 5 s

Time = 0.016875

Courant Number mean: 0.060743 max: 0.922872
smoothSolver:  Solving for Ux, Initial residual = 0.00760655, Final residual = 6.49525e-06, No Iterations 6
smoothSolver:  Solving for Uy, Initial residual = 0.0091995, Final residual = 8.74652e-06, No Iterations 6
DICPCG:  Solving for p, Initial residual = 0.00851198, Final residual = 0.000418825, No Iterations 94
time step continuity errors : sum local = 6.178e-08, global = 3.64206e-20, cumulative = 3.2075e-20
DICPCG:  Solving for p, Initial residual = 0.00584143, Final residual = 9.6869e-07, No Iterations 229
time step continuity errors : sum local = 1.19633e-10, global = 2.83222e-20, cumulative = 6.03972e-20
ExecutionTime = 5.14 s  ClockTime = 5 s

Time = 0.0175

Courant Number mean: 0.0617268 max: 0.92423
smoothSolver:  Solving for Ux, Initial residual = 0.00729669, Final residual = 6.24265e-06, No Iterations 6
smoothSolver:  Solving for Uy, Initial residual = 0.0088969, Final residual = 8.45754e-06, No Iterations 6
DICPCG:  Solving for p, Initial residual = 0.00842691, Final residual = 0.000413027, No Iterations 182
time step continuity errors : sum local = 5.11725e-08, global = 7.47476e-21, cumulative = 6.7872e-20
DICPCG:  Solving for p, Initial residual = 0.0058097, Final residual = 9.67135e-07, No Iterations 239
time step continuity errors : sum local = 1.19615e-10, global = -3.66208e-20, cumulative = 3.12511e-20
ExecutionTime = 5.34 s  ClockTime = 5 s

Time = 0.018125

Courant Number mean: 0.0626847 max: 0.925513
smoothSolver:  Solving for Ux, Initial residual = 0.00704391, Final residual = 6.04249e-06, No Iterations 6
smoothSolver:  Solving for Uy, Initial residual = 0.00853894, Final residual = 8.11898e-06, No Iterations 6
DICPCG:  Solving for p, Initial residual = 0.00796637, Final residual = 0.000396176, No Iterations 89
time step continuity errors : sum local = 5.13691e-08, global = 1.97512e-20, cumulative = 5.10024e-20
DICPCG:  Solving for p, Initial residual = 0.00550854, Final residual = 9.92871e-07, No Iterations 228
time step continuity errors : sum local = 1.22837e-10, global = -1.57073e-20, cumulative = 3.52951e-20
ExecutionTime = 5.5 s  ClockTime = 6 s

Time = 0.01875

Courant Number mean: 0.063617 max: 0.926726
smoothSolver:  Solving for Ux, Initial residual = 0.00679274, Final residual = 5.83836e-06, No Iterations 6
smoothSolver:  Solving for Uy, Initial residual = 0.00824645, Final residual = 7.83973e-06, No Iterations 6
DICPCG:  Solving for p, Initial residual = 0.0077995, Final residual = 0.000366529, No Iterations 89
time step continuity errors : sum local = 4.61385e-08, global = 8.28231e-20, cumulative = 1.18118e-19
DICPCG:  Solving for p, Initial residual = 0.00550534, Final residual = 9.51784e-07, No Iterations 228
time step continuity errors : sum local = 1.17946e-10, global = -1.11807e-19, cumulative = 6.31143e-21
ExecutionTime = 5.66 s  ClockTime = 6 s

Time = 0.019375

Courant Number mean: 0.0645273 max: 0.927876
smoothSolver:  Solving for Ux, Initial residual = 0.00656663, Final residual = 5.65619e-06, No Iterations 6
smoothSolver:  Solving for Uy, Initial residual = 0.0079569, Final residual = 7.56332e-06, No Iterations 6
DICPCG:  Solving for p, Initial residual = 0.00753058, Final residual = 0.000374072, No Iterations 89
time step continuity errors : sum local = 4.98853e-08, global = -5.44142e-21, cumulative = 8.70011e-22
DICPCG:  Solving for p, Initial residual = 0.00535637, Final residual = 9.33304e-07, No Iterations 228
time step continuity errors : sum local = 1.15852e-10, global = 2.51825e-20, cumulative = 2.60525e-20
ExecutionTime = 5.81 s  ClockTime = 6 s

Time = 0.02

Courant Number mean: 0.065421 max: 0.928968
smoothSolver:  Solving for Ux, Initial residual = 0.00634403, Final residual = 5.47439e-06, No Iterations 6
smoothSolver:  Solving for Uy, Initial residual = 0.00770876, Final residual = 7.32613e-06, No Iterations 6
DICPCG:  Solving for p, Initial residual = 0.00741963, Final residual = 0.000354263, No Iterations 89
time step continuity errors : sum local = 4.64343e-08, global = -3.59016e-20, cumulative = -9.84904e-21
DICPCG:  Solving for p, Initial residual = 0.00523086, Final residual = 8.94143e-07, No Iterations 228
time step continuity errors : sum local = 1.11127e-10, global = 5.07835e-21, cumulative = -4.77069e-21
ExecutionTime = 5.97 s  ClockTime = 6 s

Time = 0.020625

Courant Number mean: 0.0662955 max: 0.930006
smoothSolver:  Solving for Ux, Initial residual = 0.00614971, Final residual = 5.31736e-06, No Iterations 6
smoothSolver:  Solving for Uy, Initial residual = 0.00744784, Final residual = 7.07642e-06, No Iterations 6
DICPCG:  Solving for p, Initial residual = 0.00718521, Final residual = 0.000353314, No Iterations 90
time step continuity errors : sum local = 4.96384e-08, global = 9.0176e-21, cumulative = 4.24692e-21
DICPCG:  Solving for p, Initial residual = 0.00507416, Final residual = 9.27495e-07, No Iterations 228
time step continuity errors : sum local = 1.1552e-10, global = -1.50338e-20, cumulative = -1.07869e-20
ExecutionTime = 6.13 s  ClockTime = 6 s

Time = 0.02125

Courant Number mean: 0.0671508 max: 0.930996
smoothSolver:  Solving for Ux, Initial residual = 0.00594822, Final residual = 5.1497e-06, No Iterations 6
smoothSolver:  Solving for Uy, Initial residual = 0.00724217, Final residual = 6.87962e-06, No Iterations 6
DICPCG:  Solving for p, Initial residual = 0.00712715, Final residual = 0.000345166, No Iterations 90
time step continuity errors : sum local = 4.85115e-08, global = 1.18876e-20, cumulative = 1.1007e-21
DICPCG:  Solving for p, Initial residual = 0.00502187, Final residual = 8.63755e-07, No Iterations 228
time step continuity errors : sum local = 1.07691e-10, global = 7.76536e-20, cumulative = 7.87543e-20
ExecutionTime = 6.29 s  ClockTime = 6 s

Time = 0.021875

Courant Number mean: 0.0679875 max: 0.93194
smoothSolver:  Solving for Ux, Initial residual = 0.00578603, Final residual = 5.01925e-06, No Iterations 6
smoothSolver:  Solving for Uy, Initial residual = 0.00699756, Final residual = 6.64482e-06, No Iterations 6
DICPCG:  Solving for p, Initial residual = 0.00691261, Final residual = 0.000345056, No Iterations 182
time step continuity errors : sum local = 4.30745e-08, global = 3.78122e-20, cumulative = 1.16566e-19
DICPCG:  Solving for p, Initial residual = 0.00483579, Final residual = 9.76781e-07, No Iterations 237
time step continuity errors : sum local = 1.21911e-10, global = -1.68687e-20, cumulative = 9.96978e-20
ExecutionTime = 6.49 s  ClockTime = 7 s

Time = 0.0225

Courant Number mean: 0.0688059 max: 0.932843
smoothSolver:  Solving for Ux, Initial residual = 0.00560649, Final residual = 4.8709e-06, No Iterations 6
smoothSolver:  Solving for Uy, Initial residual = 0.00680703, Final residual = 6.46482e-06, No Iterations 6
DICPCG:  Solving for p, Initial residual = 0.00673021, Final residual = 0.000311397, No Iterations 89
time step continuity errors : sum local = 4.02256e-08, global = -8.5451e-21, cumulative = 9.11527e-20
DICPCG:  Solving for p, Initial residual = 0.00464552, Final residual = 9.05424e-07, No Iterations 228
time step continuity errors : sum local = 1.1315e-10, global = -8.74482e-21, cumulative = 8.24079e-20
ExecutionTime = 6.65 s  ClockTime = 7 s

Time = 0.023125

Courant Number mean: 0.0696068 max: 0.933707
smoothSolver:  Solving for Ux, Initial residual = 0.00544347, Final residual = 4.73643e-06, No Iterations 6
smoothSolver:  Solving for Uy, Initial residual = 0.00662081, Final residual = 6.28666e-06, No Iterations 6
DICPCG:  Solving for p, Initial residual = 0.00656863, Final residual = 0.000294506, No Iterations 89
time step continuity errors : sum local = 3.68007e-08, global = 9.87405e-20, cumulative = 1.81148e-19
DICPCG:  Solving for p, Initial residual = 0.00465711, Final residual = 9.7855e-07, No Iterations 227
time step continuity errors : sum local = 1.22314e-10, global = -1.59151e-21, cumulative = 1.79557e-19
ExecutionTime = 6.81 s  ClockTime = 7 s

Time = 0.02375

Courant Number mean: 0.0703903 max: 0.934535
smoothSolver:  Solving for Ux, Initial residual = 0.00529399, Final residual = 4.61282e-06, No Iterations 6
smoothSolver:  Solving for Uy, Initial residual = 0.0064374, Final residual = 6.11099e-06, No Iterations 6
DICPCG:  Solving for p, Initial residual = 0.0063909, Final residual = 0.000292055, No Iterations 89
time step continuity errors : sum local = 3.83613e-08, global = -1.69886e-20, cumulative = 1.62568e-19
DICPCG:  Solving for p, Initial residual = 0.00455432, Final residual = 9.85344e-07, No Iterations 227
time step continuity errors : sum local = 1.23351e-10, global = -1.81424e-20, cumulative = 1.44426e-19
ExecutionTime = 6.97 s  ClockTime = 7 s

Time = 0.024375

Courant Number mean: 0.0711614 max: 0.935329
smoothSolver:  Solving for Ux, Initial residual = 0.00514885, Final residual = 4.49141e-06, No Iterations 6
smoothSolver:  Solving for Uy, Initial residual = 0.00627243, Final residual = 5.95307e-06, No Iterations 6
DICPCG:  Solving for p, Initial residual = 0.00630668, Final residual = 0.000283111, No Iterations 89
time step continuity errors : sum local = 3.61544e-08, global = -1.69985e-20, cumulative = 1.27427e-19
DICPCG:  Solving for p, Initial residual = 0.00446939, Final residual = 9.44031e-07, No Iterations 227
time step continuity errors : sum local = 1.18241e-10, global = 3.18696e-20, cumulative = 1.59297e-19
ExecutionTime = 7.12 s  ClockTime = 7 s

Time = 0.025

Courant Number mean: 0.0719203 max: 0.936092
smoothSolver:  Solving for Ux, Initial residual = 0.00501614, Final residual = 4.38184e-06, No Iterations 6
smoothSolver:  Solving for Uy, Initial residual = 0.00610529, Final residual = 5.79268e-06, No Iterations 6
DICPCG:  Solving for p, Initial residual = 0.00615443, Final residual = 0.00028951, No Iterations 89
time step continuity errors : sum local = 3.90502e-08, global = -6.61603e-22, cumulative = 1.58635e-19
DICPCG:  Solving for p, Initial residual = 0.0043908, Final residual = 9.81082e-07, No Iterations 227
time step continuity errors : sum local = 1.23117e-10, global = 4.68955e-21, cumulative = 1.63325e-19
ExecutionTime = 7.35 s  ClockTime = 7 s

Time = 0.025625

Courant Number mean: 0.0726656 max: 0.936826
smoothSolver:  Solving for Ux, Initial residual = 0.00488236, Final residual = 4.26973e-06, No Iterations 6
smoothSolver:  Solving for Uy, Initial residual = 0.00596191, Final residual = 5.65537e-06, No Iterations 6
DICPCG:  Solving for p, Initial residual = 0.00610807, Final residual = 0.000279927, No Iterations 89
time step continuity errors : sum local = 3.71787e-08, global = -1.00387e-20, cumulative = 1.53286e-19
DICPCG:  Solving for p, Initial residual = 0.00431946, Final residual = 9.04998e-07, No Iterations 227
time step continuity errors : sum local = 1.13627e-10, global = 2.4527e-21, cumulative = 1.55739e-19
ExecutionTime = 7.51 s  ClockTime = 8 s

Time = 0.02625

Courant Number mean: 0.0733973 max: 0.937532
smoothSolver:  Solving for Ux, Initial residual = 0.00476534, Final residual = 4.17358e-06, No Iterations 6
smoothSolver:  Solving for Uy, Initial residual = 0.00580563, Final residual = 5.50517e-06, No Iterations 6
DICPCG:  Solving for p, Initial residual = 0.00595295, Final residual = 0.000280187, No Iterations 90
time step continuity errors : sum local = 3.97664e-08, global = 8.199e-21, cumulative = 1.63938e-19
DICPCG:  Solving for p, Initial residual = 0.00421614, Final residual = 9.17725e-07, No Iterations 228
time step continuity errors : sum local = 1.15502e-10, global = 6.3138e-21, cumulative = 1.70252e-19
ExecutionTime = 7.67 s  ClockTime = 8 s

Time = 0.026875

Courant Number mean: 0.0741156 max: 0.938212
smoothSolver:  Solving for Ux, Initial residual = 0.00464003, Final residual = 4.06713e-06, No Iterations 6
smoothSolver:  Solving for Uy, Initial residual = 0.0056846, Final residual = 5.38921e-06, No Iterations 6
DICPCG:  Solving for p, Initial residual = 0.00593795, Final residual = 0.000283709, No Iterations 90
time step continuity errors : sum local = 4.02164e-08, global = -2.34828e-20, cumulative = 1.46769e-19
DICPCG:  Solving for p, Initial residual = 0.00420725, Final residual = 8.6237e-07, No Iterations 227
time step continuity errors : sum local = 1.08565e-10, global = 1.79822e-20, cumulative = 1.64751e-19
ExecutionTime = 7.83 s  ClockTime = 8 s

Time = 0.0275

Courant Number mean: 0.0748208 max: 0.938869
smoothSolver:  Solving for Ux, Initial residual = 0.00454092, Final residual = 3.9855e-06, No Iterations 6
smoothSolver:  Solving for Uy, Initial residual = 0.00553275, Final residual = 5.2427e-06, No Iterations 6
DICPCG:  Solving for p, Initial residual = 0.00580887, Final residual = 0.000268233, No Iterations 181
time step continuity errors : sum local = 3.38012e-08, global = 4.45347e-22, cumulative = 1.65197e-19
DICPCG:  Solving for p, Initial residual = 0.00406124, Final residual = 8.84369e-07, No Iterations 236
time step continuity errors : sum local = 1.11598e-10, global = -4.30924e-21, cumulative = 1.60887e-19
ExecutionTime = 8.03 s  ClockTime = 8 s

Time = 0.028125

Courant Number mean: 0.0755137 max: 0.939502
smoothSolver:  Solving for Ux, Initial residual = 0.00442707, Final residual = 3.8892e-06, No Iterations 6
smoothSolver:  Solving for Uy, Initial residual = 0.00541614, Final residual = 5.13262e-06, No Iterations 6
DICPCG:  Solving for p, Initial residual = 0.00563519, Final residual = 0.000257734, No Iterations 89
time step continuity errors : sum local = 3.35208e-08, global = -6.02049e-20, cumulative = 1.00682e-19
DICPCG:  Solving for p, Initial residual = 0.00393528, Final residual = 9.5393e-07, No Iterations 228
time step continuity errors : sum local = 1.20413e-10, global = 3.90994e-20, cumulative = 1.39782e-19
ExecutionTime = 8.18 s  ClockTime = 8 s

Time = 0.02875

Courant Number mean: 0.0761939 max: 0.940115
smoothSolver:  Solving for Ux, Initial residual = 0.004323, Final residual = 3.80141e-06, No Iterations 6
smoothSolver:  Solving for Uy, Initial residual = 0.00530072, Final residual = 5.0219e-06, No Iterations 6
DICPCG:  Solving for p, Initial residual = 0.0055685, Final residual = 0.00027217, No Iterations 88
time step continuity errors : sum local = 3.43089e-08, global = -2.95636e-20, cumulative = 1.10218e-19
DICPCG:  Solving for p, Initial residual = 0.00395158, Final residual = 9.94176e-07, No Iterations 226
time step continuity errors : sum local = 1.25453e-10, global = -1.24626e-20, cumulative = 9.77556e-20
ExecutionTime = 8.35 s  ClockTime = 8 s

Time = 0.029375

Courant Number mean: 0.0768628 max: 0.940707
smoothSolver:  Solving for Ux, Initial residual = 0.00422655, Final residual = 3.72068e-06, No Iterations 6
smoothSolver:  Solving for Uy, Initial residual = 0.00518516, Final residual = 4.91091e-06, No Iterations 6
DICPCG:  Solving for p, Initial residual = 0.00547218, Final residual = 0.000272613, No Iterations 88
time step continuity errors : sum local = 3.58458e-08, global = -2.85731e-21, cumulative = 9.48982e-20
DICPCG:  Solving for p, Initial residual = 0.00393909, Final residual = 8.88921e-07, No Iterations 227
time step continuity errors : sum local = 1.12322e-10, global = 2.23805e-20, cumulative = 1.17279e-19
ExecutionTime = 8.51 s  ClockTime = 9 s

Time = 0.03

Courant Number mean: 0.0775235 max: 0.94128
smoothSolver:  Solving for Ux, Initial residual = 0.00413136, Final residual = 3.64032e-06, No Iterations 6
smoothSolver:  Solving for Uy, Initial residual = 0.00508016, Final residual = 4.81033e-06, No Iterations 6
DICPCG:  Solving for p, Initial residual = 0.00541757, Final residual = 0.000263968, No Iterations 88
time step continuity errors : sum local = 3.39102e-08, global = -9.60105e-21, cumulative = 1.07678e-19
DICPCG:  Solving for p, Initial residual = 0.00388004, Final residual = 9.46832e-07, No Iterations 226
time step continuity errors : sum local = 1.19687e-10, global = 1.38726e-20, cumulative = 1.2155e-19
ExecutionTime = 8.66 s  ClockTime = 9 s

Time = 0.030625

Courant Number mean: 0.0781752 max: 0.941835
smoothSolver:  Solving for Ux, Initial residual = 0.00404414, Final residual = 3.56694e-06, No Iterations 6
smoothSolver:  Solving for Uy, Initial residual = 0.00497227, Final residual = 4.70653e-06, No Iterations 6
DICPCG:  Solving for p, Initial residual = 0.00531596, Final residual = 0.000245288, No Iterations 89
time step continuity errors : sum local = 3.31869e-08, global = -9.68708e-21, cumulative = 1.11863e-19
DICPCG:  Solving for p, Initial residual = 0.00377321, Final residual = 9.93144e-07, No Iterations 226
time step continuity errors : sum local = 1.25731e-10, global = 6.31148e-20, cumulative = 1.74978e-19
ExecutionTime = 8.82 s  ClockTime = 9 s

Time = 0.03125

Courant Number mean: 0.0788168 max: 0.942374
smoothSolver:  Solving for Ux, Initial residual = 0.00395541, Final residual = 3.49077e-06, No Iterations 6
smoothSolver:  Solving for Uy, Initial residual = 0.0048792, Final residual = 4.61738e-06, No Iterations 6
DICPCG:  Solving for p, Initial residual = 0.00526752, Final residual = 0.000243129, No Iterations 89
time step continuity errors : sum local = 3.24034e-08, global = 8.35135e-21, cumulative = 1.83329e-19
DICPCG:  Solving for p, Initial residual = 0.00375334, Final residual = 8.94499e-07, No Iterations 226
time step continuity errors : sum local = 1.13247e-10, global = -4.27709e-20, cumulative = 1.40558e-19
ExecutionTime = 8.97 s  ClockTime = 9 s

Time = 0.031875

Courant Number mean: 0.0794485 max: 0.942896
smoothSolver:  Solving for Ux, Initial residual = 0.0038776, Final residual = 3.4254e-06, No Iterations 6
smoothSolver:  Solving for Uy, Initial residual = 0.00477624, Final residual = 4.51803e-06, No Iterations 6
DICPCG:  Solving for p, Initial residual = 0.00516664, Final residual = 0.000242607, No Iterations 90
time step continuity errors : sum local = 3.43393e-08, global = -6.8714e-20, cumulative = 7.18445e-20
DICPCG:  Solving for p, Initial residual = 0.00367193, Final residual = 9.31541e-07, No Iterations 227
time step continuity errors : sum local = 1.18201e-10, global = 1.76601e-20, cumulative = 8.95046e-20
ExecutionTime = 9.13 s  ClockTime = 9 s

Time = 0.0325

Courant Number mean: 0.0800706 max: 0.943403
smoothSolver:  Solving for Ux, Initial residual = 0.00379273, Final residual = 3.35237e-06, No Iterations 6
smoothSolver:  Solving for Uy, Initial residual = 0.00469677, Final residual = 4.44197e-06, No Iterations 6
DICPCG:  Solving for p, Initial residual = 0.00515938, Final residual = 0.000246851, No Iterations 90
time step continuity errors : sum local = 3.48986e-08, global = 3.79109e-20, cumulative = 1.27416e-19
DICPCG:  Solving for p, Initial residual = 0.0036769, Final residual = 9.18617e-07, No Iterations 225
time step continuity errors : sum local = 1.1645e-10, global = -1.81501e-20, cumulative = 1.09265e-19
ExecutionTime = 9.29 s  ClockTime = 9 s

Time = 0.033125

Courant Number mean: 0.080683 max: 0.943896
smoothSolver:  Solving for Ux, Initial residual = 0.00372541, Final residual = 3.2968e-06, No Iterations 6
smoothSolver:  Solving for Uy, Initial residual = 0.0045945, Final residual = 4.34293e-06, No Iterations 6
DICPCG:  Solving for p, Initial residual = 0.00507008, Final residual = 0.000252699, No Iterations 95
time step continuity errors : sum local = 3.83923e-08, global = -1.71863e-20, cumulative = 9.20791e-20
DICPCG:  Solving for p, Initial residual = 0.00354002, Final residual = 9.92723e-07, No Iterations 230
time step continuity errors : sum local = 1.26327e-10, global = -5.83456e-20, cumulative = 3.37335e-20
ExecutionTime = 9.45 s  ClockTime = 10 s

Time = 0.03375

Courant Number mean: 0.0812864 max: 0.944375
smoothSolver:  Solving for Ux, Initial residual = 0.00364165, Final residual = 3.22398e-06, No Iterations 6
smoothSolver:  Solving for Uy, Initial residual = 0.0045313, Final residual = 4.28243e-06, No Iterations 6
DICPCG:  Solving for p, Initial residual = 0.00511247, Final residual = 0.000236884, No Iterations 178
time step continuity errors : sum local = 3.00612e-08, global = 2.73629e-20, cumulative = 6.10964e-20
DICPCG:  Solving for p, Initial residual = 0.00355454, Final residual = 9.92618e-07, No Iterations 221
time step continuity errors : sum local = 1.26132e-10, global = -2.19516e-20, cumulative = 3.91448e-20
ExecutionTime = 9.64 s  ClockTime = 10 s

Time = 0.034375

Courant Number mean: 0.0818805 max: 0.944841
smoothSolver:  Solving for Ux, Initial residual = 0.00357602, Final residual = 3.16932e-06, No Iterations 6
smoothSolver:  Solving for Uy, Initial residual = 0.00443592, Final residual = 4.19198e-06, No Iterations 6
DICPCG:  Solving for p, Initial residual = 0.00485881, Final residual = 0.000220525, No Iterations 89
time step continuity errors : sum local = 2.92214e-08, global = 2.62668e-20, cumulative = 6.54116e-20
DICPCG:  Solving for p, Initial residual = 0.00340603, Final residual = 9.43588e-07, No Iterations 226
time step continuity errors : sum local = 1.20112e-10, global = -1.72706e-20, cumulative = 4.8141e-20
ExecutionTime = 9.8 s  ClockTime = 10 s

Time = 0.035

Courant Number mean: 0.0824654 max: 0.945295
smoothSolver:  Solving for Ux, Initial residual = 0.00350632, Final residual = 3.10912e-06, No Iterations 6
smoothSolver:  Solving for Uy, Initial residual = 0.00436138, Final residual = 4.12039e-06, No Iterations 6
DICPCG:  Solving for p, Initial residual = 0.00484551, Final residual = 0.000237299, No Iterations 88
time step continuity errors : sum local = 3.0685e-08, global = 1.87386e-20, cumulative = 6.68796e-20
DICPCG:  Solving for p, Initial residual = 0.0034552, Final residual = 9.71019e-07, No Iterations 224
time step continuity errors : sum local = 1.23712e-10, global = 5.48455e-20, cumulative = 1.21725e-19
ExecutionTime = 9.97 s  ClockTime = 10 s

Time = 0.035625

Courant Number mean: 0.0830424 max: 0.945737
smoothSolver:  Solving for Ux, Initial residual = 0.00344267, Final residual = 9.83329e-06, No Iterations 5
smoothSolver:  Solving for Uy, Initial residual = 0.00428359, Final residual = 4.04542e-06, No Iterations 6
DICPCG:  Solving for p, Initial residual = 0.00478929, Final residual = 0.000237432, No Iterations 88
time step continuity errors : sum local = 3.19793e-08, global = 1.19104e-20, cumulative = 1.33635e-19
DICPCG:  Solving for p, Initial residual = 0.00346015, Final residual = 9.53235e-07, No Iterations 224
time step continuity errors : sum local = 1.21558e-10, global = -7.73818e-20, cumulative = 5.62537e-20
ExecutionTime = 10.12 s  ClockTime = 10 s

Time = 0.03625

Courant Number mean: 0.0836135 max: 0.946169
smoothSolver:  Solving for Ux, Initial residual = 0.00337725, Final residual = 9.65085e-06, No Iterations 5
smoothSolver:  Solving for Uy, Initial residual = 0.00421627, Final residual = 3.98099e-06, No Iterations 6
DICPCG:  Solving for p, Initial residual = 0.00475745, Final residual = 0.000236105, No Iterations 88
time step continuity errors : sum local = 3.14568e-08, global = 2.35025e-20, cumulative = 7.97561e-20
DICPCG:  Solving for p, Initial residual = 0.00342433, Final residual = 9.04398e-07, No Iterations 223
time step continuity errors : sum local = 1.15351e-10, global = -1.85849e-20, cumulative = 6.11712e-20
ExecutionTime = 10.28 s  ClockTime = 10 s

Time = 0.036875

Courant Number mean: 0.0841773 max: 0.946589
smoothSolver:  Solving for Ux, Initial residual = 0.00331956, Final residual = 9.49352e-06, No Iterations 5
smoothSolver:  Solving for Uy, Initial residual = 0.00414107, Final residual = 3.90829e-06, No Iterations 6
DICPCG:  Solving for p, Initial residual = 0.00468825, Final residual = 0.000230682, No Iterations 89
time step continuity errors : sum local = 3.23672e-08, global = 6.94785e-21, cumulative = 6.8119e-20
DICPCG:  Solving for p, Initial residual = 0.00335311, Final residual = 9.63819e-07, No Iterations 224
time step continuity errors : sum local = 1.2315e-10, global = 3.44571e-20, cumulative = 1.02576e-19
ExecutionTime = 10.43 s  ClockTime = 11 s

Time = 0.0375

Courant Number mean: 0.084734 max: 0.947
smoothSolver:  Solving for Ux, Initial residual = 0.00325604, Final residual = 9.31592e-06, No Iterations 5
smoothSolver:  Solving for Uy, Initial residual = 0.00408301, Final residual = 3.85285e-06, No Iterations 6
DICPCG:  Solving for p, Initial residual = 0.00467248, Final residual = 0.000219323, No Iterations 90
time step continuity errors : sum local = 3.10087e-08, global = -2.49752e-20, cumulative = 7.7601e-20
DICPCG:  Solving for p, Initial residual = 0.00331765, Final residual = 8.86301e-07, No Iterations 222
time step continuity errors : sum local = 1.1317e-10, global = 4.43887e-20, cumulative = 1.2199e-19
ExecutionTime = 10.65 s  ClockTime = 11 s

Time = 0.038125

Courant Number mean: 0.0852834 max: 0.947401
smoothSolver:  Solving for Ux, Initial residual = 0.00320616, Final residual = 9.18034e-06, No Iterations 5
smoothSolver:  Solving for Uy, Initial residual = 0.0040071, Final residual = 3.77912e-06, No Iterations 6
DICPCG:  Solving for p, Initial residual = 0.0045933, Final residual = 0.000226917, No Iterations 93
time step continuity errors : sum local = 3.42142e-08, global = -4.15032e-20, cumulative = 8.04865e-20
DICPCG:  Solving for p, Initial residual = 0.00320531, Final residual = 9.78971e-07, No Iterations 225
time step continuity errors : sum local = 1.25294e-10, global = 1.07971e-20, cumulative = 9.12836e-20
ExecutionTime = 10.82 s  ClockTime = 11 s

Time = 0.03875

Courant Number mean: 0.0858259 max: 0.947794
smoothSolver:  Solving for Ux, Initial residual = 0.00314318, Final residual = 9.00119e-06, No Iterations 5
smoothSolver:  Solving for Uy, Initial residual = 0.0039611, Final residual = 3.73524e-06, No Iterations 6
DICPCG:  Solving for p, Initial residual = 0.00463212, Final residual = 0.000216871, No Iterations 178
time step continuity errors : sum local = 2.7677e-08, global = -2.2987e-20, cumulative = 6.82965e-20
DICPCG:  Solving for p, Initial residual = 0.00323982, Final residual = 9.08216e-07, No Iterations 221
time step continuity errors : sum local = 1.16059e-10, global = 4.12961e-20, cumulative = 1.09593e-19
ExecutionTime = 11.01 s  ClockTime = 11 s

Time = 0.039375

Courant Number mean: 0.0863612 max: 0.948177
smoothSolver:  Solving for Ux, Initial residual = 0.00309367, Final residual = 8.86629e-06, No Iterations 5
smoothSolver:  Solving for Uy, Initial residual = 0.00388941, Final residual = 3.66715e-06, No Iterations 6
DICPCG:  Solving for p, Initial residual = 0.00442103, Final residual = 0.000198872, No Iterations 89
time step continuity errors : sum local = 2.633e-08, global = -3.0573e-22, cumulative = 1.09287e-19
DICPCG:  Solving for p, Initial residual = 0.00311447, Final residual = 9.97984e-07, No Iterations 223
time step continuity errors : sum local = 1.27954e-10, global = -2.70459e-20, cumulative = 8.2241e-20
ExecutionTime = 11.16 s  ClockTime = 11 s

Time = 0.04

Courant Number mean: 0.0868895 max: 0.948553
smoothSolver:  Solving for Ux, Initial residual = 0.00304056, Final residual = 8.71727e-06, No Iterations 5
smoothSolver:  Solving for Uy, Initial residual = 0.00383355, Final residual = 3.61351e-06, No Iterations 6
DICPCG:  Solving for p, Initial residual = 0.0044181, Final residual = 0.000217425, No Iterations 88
time step continuity errors : sum local = 2.82033e-08, global = 1.50096e-20, cumulative = 9.72506e-20
DICPCG:  Solving for p, Initial residual = 0.0031675, Final residual = 9.72929e-07, No Iterations 222
time step continuity errors : sum local = 1.24794e-10, global = 4.71039e-20, cumulative = 1.44354e-19
ExecutionTime = 11.32 s  ClockTime = 11 s

Time = 0.040625

Courant Number mean: 0.0874107 max: 0.948921
smoothSolver:  Solving for Ux, Initial residual = 0.00299169, Final residual = 8.58224e-06, No Iterations 5
smoothSolver:  Solving for Uy, Initial residual = 0.00377523, Final residual = 3.55725e-06, No Iterations 6
DICPCG:  Solving for p, Initial residual = 0.00437921, Final residual = 0.000218931, No Iterations 88
time step continuity errors : sum local = 2.94418e-08, global = 5.78285e-20, cumulative = 2.02183e-19
DICPCG:  Solving for p, Initial residual = 0.00317838, Final residual = 9.74108e-07, No Iterations 223
time step continuity errors : sum local = 1.25037e-10, global = -4.08774e-20, cumulative = 1.61306e-19
ExecutionTime = 11.47 s  ClockTime = 12 s

Time = 0.04125

Courant Number mean: 0.0879252 max: 0.949283
smoothSolver:  Solving for Ux, Initial residual = 0.00294144, Final residual = 8.44163e-06, No Iterations 5
smoothSolver:  Solving for Uy, Initial residual = 0.00372432, Final residual = 3.50856e-06, No Iterations 6
DICPCG:  Solving for p, Initial residual = 0.00435755, Final residual = 0.000199257, No Iterations 89
time step continuity errors : sum local = 2.66418e-08, global = -3.18715e-20, cumulative = 1.29434e-19
DICPCG:  Solving for p, Initial residual = 0.00310898, Final residual = 9.18226e-07, No Iterations 223
time step continuity errors : sum local = 1.1792e-10, global = -7.24817e-20, cumulative = 5.69524e-20
ExecutionTime = 11.62 s  ClockTime = 12 s

Time = 0.041875

Courant Number mean: 0.0884333 max: 0.949637
smoothSolver:  Solving for Ux, Initial residual = 0.00289714, Final residual = 8.31994e-06, No Iterations 5
smoothSolver:  Solving for Uy, Initial residual = 0.00366712, Final residual = 3.45321e-06, No Iterations 6
DICPCG:  Solving for p, Initial residual = 0.00428465, Final residual = 0.000210268, No Iterations 89
time step continuity errors : sum local = 2.93446e-08, global = 1.19172e-20, cumulative = 6.88696e-20
DICPCG:  Solving for p, Initial residual = 0.00310351, Final residual = 9.57582e-07, No Iterations 224
time step continuity errors : sum local = 1.23045e-10, global = -3.02869e-20, cumulative = 3.85828e-20
ExecutionTime = 11.78 s  ClockTime = 12 s

Time = 0.0425

Courant Number mean: 0.0889352 max: 0.949985
smoothSolver:  Solving for Ux, Initial residual = 0.00284841, Final residual = 8.18211e-06, No Iterations 5
smoothSolver:  Solving for Uy, Initial residual = 0.00362287, Final residual = 3.41103e-06, No Iterations 6
DICPCG:  Solving for p, Initial residual = 0.00428551, Final residual = 0.000196802, No Iterations 90
time step continuity errors : sum local = 2.76997e-08, global = -7.54375e-20, cumulative = -3.68548e-20
DICPCG:  Solving for p, Initial residual = 0.00305166, Final residual = 9.94268e-07, No Iterations 222
time step continuity errors : sum local = 1.27791e-10, global = -5.21881e-20, cumulative = -8.90429e-20
ExecutionTime = 11.94 s  ClockTime = 12 s

Time = 0.043125

Courant Number mean: 0.0894325 max: 0.950327
smoothSolver:  Solving for Ux, Initial residual = 0.00280971, Final residual = 8.07605e-06, No Iterations 5
smoothSolver:  Solving for Uy, Initial residual = 0.00356488, Final residual = 3.35459e-06, No Iterations 6
DICPCG:  Solving for p, Initial residual = 0.00421921, Final residual = 0.0002052, No Iterations 92
time step continuity errors : sum local = 3.06007e-08, global = -4.51052e-20, cumulative = -1.34148e-19
DICPCG:  Solving for p, Initial residual = 0.00297639, Final residual = 9.08913e-07, No Iterations 225
time step continuity errors : sum local = 1.16875e-10, global = 6.06869e-20, cumulative = -7.34613e-20
ExecutionTime = 12.09 s  ClockTime = 12 s

Time = 0.04375

Courant Number mean: 0.0899249 max: 0.950663
smoothSolver:  Solving for Ux, Initial residual = 0.00276078, Final residual = 7.93597e-06, No Iterations 5
smoothSolver:  Solving for Uy, Initial residual = 0.00352936, Final residual = 3.32086e-06, No Iterations 6
DICPCG:  Solving for p, Initial residual = 0.00424922, Final residual = 0.000210682, No Iterations 95
time step continuity errors : sum local = 3.19101e-08, global = -1.41202e-20, cumulative = -8.75815e-20
DICPCG:  Solving for p, Initial residual = 0.00294043, Final residual = 9.24526e-07, No Iterations 222
time step continuity errors : sum local = 1.18872e-10, global = 7.12758e-20, cumulative = -1.63057e-20
ExecutionTime = 12.25 s  ClockTime = 12 s

Time = 0.044375

Courant Number mean: 0.090412 max: 0.950994
smoothSolver:  Solving for Ux, Initial residual = 0.00272987, Final residual = 7.85294e-06, No Iterations 5
smoothSolver:  Solving for Uy, Initial residual = 0.00346647, Final residual = 3.25926e-06, No Iterations 6
DICPCG:  Solving for p, Initial residual = 0.00419897, Final residual = 0.000209068, No Iterations 178
time step continuity errors : sum local = 2.68768e-08, global = 3.18057e-20, cumulative = 1.55e-20
DICPCG:  Solving for p, Initial residual = 0.00297245, Final residual = 9.40718e-07, No Iterations 233
time step continuity errors : sum local = 1.20748e-10, global = -2.01385e-20, cumulative = -4.63847e-21
ExecutionTime = 12.45 s  ClockTime = 13 s

Time = 0.045

Courant Number mean: 0.0908938 max: 0.95132
smoothSolver:  Solving for Ux, Initial residual = 0.00268167, Final residual = 7.71666e-06, No Iterations 5
smoothSolver:  Solving for Uy, Initial residual = 0.00342892, Final residual = 3.22496e-06, No Iterations 6
DICPCG:  Solving for p, Initial residual = 0.0040603, Final residual = 0.000202591, No Iterations 88
time step continuity errors : sum local = 2.64572e-08, global = -5.51213e-20, cumulative = -5.97597e-20
DICPCG:  Solving for p, Initial residual = 0.00288905, Final residual = 9.58711e-07, No Iterations 224
time step continuity errors : sum local = 1.23562e-10, global = -1.58707e-20, cumulative = -7.56305e-20
ExecutionTime = 12.6 s  ClockTime = 13 s

Time = 0.045625

Courant Number mean: 0.0913702 max: 0.951641
smoothSolver:  Solving for Ux, Initial residual = 0.00264102, Final residual = 7.60293e-06, No Iterations 5
smoothSolver:  Solving for Uy, Initial residual = 0.00338656, Final residual = 3.18425e-06, No Iterations 6
DICPCG:  Solving for p, Initial residual = 0.00405973, Final residual = 0.000198432, No Iterations 88
time step continuity errors : sum local = 2.55414e-08, global = -8.66626e-20, cumulative = -1.62293e-19
DICPCG:  Solving for p, Initial residual = 0.00294883, Final residual = 9.25183e-07, No Iterations 165
time step continuity errors : sum local = 1.3934e-10, global = -3.5794e-20, cumulative = -1.98087e-19
ExecutionTime = 12.73 s  ClockTime = 13 s

Time = 0.04625

Courant Number mean: 0.0918413 max: 0.951956
smoothSolver:  Solving for Ux, Initial residual = 0.002603, Final residual = 7.49707e-06, No Iterations 5
smoothSolver:  Solving for Uy, Initial residual = 0.00334343, Final residual = 3.14277e-06, No Iterations 6
DICPCG:  Solving for p, Initial residual = 0.00400795, Final residual = 0.000196546, No Iterations 88
time step continuity errors : sum local = 2.59037e-08, global = 3.54194e-20, cumulative = -1.62668e-19
DICPCG:  Solving for p, Initial residual = 0.00291784, Final residual = 9.69769e-07, No Iterations 223
time step continuity errors : sum local = 1.25053e-10, global = 1.54394e-20, cumulative = -1.47228e-19
ExecutionTime = 12.9 s  ClockTime = 13 s

Time = 0.046875

Courant Number mean: 0.0923071 max: 0.952266
smoothSolver:  Solving for Ux, Initial residual = 0.00256528, Final residual = 7.39098e-06, No Iterations 5
smoothSolver:  Solving for Uy, Initial residual = 0.00330321, Final residual = 9.91445e-06, No Iterations 5
DICPCG:  Solving for p, Initial residual = 0.00396775, Final residual = 0.000196566, No Iterations 88
time step continuity errors : sum local = 2.54536e-08, global = -2.31123e-20, cumulative = -1.70341e-19
DICPCG:  Solving for p, Initial residual = 0.00287668, Final residual = 9.63e-07, No Iterations 224
time step continuity errors : sum local = 1.24155e-10, global = 4.7038e-21, cumulative = -1.65637e-19
ExecutionTime = 13.05 s  ClockTime = 13 s

Time = 0.0475

Courant Number mean: 0.0927676 max: 0.952571
smoothSolver:  Solving for Ux, Initial residual = 0.00252979, Final residual = 7.29174e-06, No Iterations 5
smoothSolver:  Solving for Uy, Initial residual = 0.003262, Final residual = 9.78811e-06, No Iterations 5
DICPCG:  Solving for p, Initial residual = 0.00392255, Final residual = 0.000195548, No Iterations 88
time step continuity errors : sum local = 2.61042e-08, global = 1.05976e-19, cumulative = -5.96603e-20
DICPCG:  Solving for p, Initial residual = 0.0028516, Final residual = 9.92681e-07, No Iterations 224
time step continuity errors : sum local = 1.28052e-10, global = -1.10166e-19, cumulative = -1.69826e-19
ExecutionTime = 13.21 s  ClockTime = 13 s

Time = 0.048125

Courant Number mean: 0.0932231 max: 0.952872
smoothSolver:  Solving for Ux, Initial residual = 0.00249367, Final residual = 7.18954e-06, No Iterations 5
smoothSolver:  Solving for Uy, Initial residual = 0.00322485, Final residual = 9.67498e-06, No Iterations 5
DICPCG:  Solving for p, Initial residual = 0.00390679, Final residual = 0.000178611, No Iterations 89
time step continuity errors : sum local = 2.36145e-08, global = 2.27802e-20, cumulative = -1.47046e-19
DICPCG:  Solving for p, Initial residual = 0.002797, Final residual = 9.75417e-07, No Iterations 224
time step continuity errors : sum local = 1.25807e-10, global = -6.07907e-20, cumulative = -2.07837e-19
ExecutionTime = 13.36 s  ClockTime = 14 s

Time = 0.04875

Courant Number mean: 0.0936738 max: 0.953166
smoothSolver:  Solving for Ux, Initial residual = 0.0024609, Final residual = 7.09796e-06, No Iterations 5
smoothSolver:  Solving for Uy, Initial residual = 0.00318435, Final residual = 9.5505e-06, No Iterations 5
DICPCG:  Solving for p, Initial residual = 0.00384883, Final residual = 0.000182416, No Iterations 89
time step continuity errors : sum local = 2.50263e-08, global = 6.0763e-20, cumulative = -1.47074e-19
DICPCG:  Solving for p, Initial residual = 0.00279063, Final residual = 8.87454e-07, No Iterations 225
time step continuity errors : sum local = 1.14561e-10, global = -6.07539e-20, cumulative = -2.07828e-19
ExecutionTime = 13.52 s  ClockTime = 14 s

Time = 0.049375

Courant Number mean: 0.0941192 max: 0.953457
smoothSolver:  Solving for Ux, Initial residual = 0.00242575, Final residual = 6.99789e-06, No Iterations 5
smoothSolver:  Solving for Uy, Initial residual = 0.00315097, Final residual = 9.44926e-06, No Iterations 5
DICPCG:  Solving for p, Initial residual = 0.00384649, Final residual = 0.000184235, No Iterations 89
time step continuity errors : sum local = 2.51801e-08, global = -2.12739e-20, cumulative = -2.29102e-19
DICPCG:  Solving for p, Initial residual = 0.00277615, Final residual = 9.73045e-07, No Iterations 224
time step continuity errors : sum local = 1.25513e-10, global = -6.83034e-21, cumulative = -2.35932e-19
ExecutionTime = 13.67 s  ClockTime = 14 s

Time = 0.05

Courant Number mean: 0.0945598 max: 0.953743
smoothSolver:  Solving for Ux, Initial residual = 0.00239592, Final residual = 6.91564e-06, No Iterations 5
smoothSolver:  Solving for Uy, Initial residual = 0.00311054, Final residual = 9.32415e-06, No Iterations 5
DICPCG:  Solving for p, Initial residual = 0.00380415, Final residual = 0.00018854, No Iterations 90
time step continuity errors : sum local = 2.69893e-08, global = -2.10316e-20, cumulative = -2.56964e-19
DICPCG:  Solving for p, Initial residual = 0.00273935, Final residual = 9.24978e-07, No Iterations 225
time step continuity errors : sum local = 1.19527e-10, global = 2.9637e-20, cumulative = -2.27327e-19
ExecutionTime = 13.89 s  ClockTime = 14 s

Time = 0.050625

Courant Number mean: 0.0949958 max: 0.954023
smoothSolver:  Solving for Ux, Initial residual = 0.00236085, Final residual = 6.81554e-06, No Iterations 5
smoothSolver:  Solving for Uy, Initial residual = 0.00308228, Final residual = 9.23904e-06, No Iterations 5
DICPCG:  Solving for p, Initial residual = 0.00381621, Final residual = 0.000186277, No Iterations 91
time step continuity errors : sum local = 2.69812e-08, global = -6.35611e-20, cumulative = -2.90888e-19
DICPCG:  Solving for p, Initial residual = 0.00272636, Final residual = 9.66862e-07, No Iterations 223
time step continuity errors : sum local = 1.24837e-10, global = 1.00026e-20, cumulative = -2.80885e-19
ExecutionTime = 14.04 s  ClockTime = 14 s

Time = 0.05125

Courant Number mean: 0.0954288 max: 0.954299
smoothSolver:  Solving for Ux, Initial residual = 0.00233576, Final residual = 6.74728e-06, No Iterations 5
smoothSolver:  Solving for Uy, Initial residual = 0.00303928, Final residual = 9.10506e-06, No Iterations 5
DICPCG:  Solving for p, Initial residual = 0.00376691, Final residual = 0.000174595, No Iterations 179
time step continuity errors : sum local = 2.25592e-08, global = -2.19364e-20, cumulative = -3.02821e-19
DICPCG:  Solving for p, Initial residual = 0.00265677, Final residual = 9.40342e-07, No Iterations 227
time step continuity errors : sum local = 1.21551e-10, global = 3.07589e-20, cumulative = -2.72063e-19
ExecutionTime = 14.24 s  ClockTime = 14 s

Time = 0.051875

Courant Number mean: 0.0958579 max: 0.954571
smoothSolver:  Solving for Ux, Initial residual = 0.002302, Final residual = 6.65141e-06, No Iterations 5
smoothSolver:  Solving for Uy, Initial residual = 0.00300969, Final residual = 9.0177e-06, No Iterations 5
DICPCG:  Solving for p, Initial residual = 0.00366538, Final residual = 0.000168369, No Iterations 89
time step continuity errors : sum local = 2.21825e-08, global = 9.79478e-21, cumulative = -2.62268e-19
DICPCG:  Solving for p, Initial residual = 0.00259411, Final residual = 9.33149e-07, No Iterations 225
time step continuity errors : sum local = 1.20465e-10, global = 6.01288e-20, cumulative = -2.02139e-19
ExecutionTime = 14.4 s  ClockTime = 15 s

Time = 0.0525

Courant Number mean: 0.0962832 max: 0.954839
smoothSolver:  Solving for Ux, Initial residual = 0.00227177, Final residual = 6.56575e-06, No Iterations 5
smoothSolver:  Solving for Uy, Initial residual = 0.00297839, Final residual = 8.92211e-06, No Iterations 5
DICPCG:  Solving for p, Initial residual = 0.00366877, Final residual = 0.000180954, No Iterations 88
time step continuity errors : sum local = 2.34196e-08, global = -1.6691e-20, cumulative = -2.1883e-19
DICPCG:  Solving for p, Initial residual = 0.00264303, Final residual = 8.99287e-07, No Iterations 225
time step continuity errors : sum local = 1.16278e-10, global = -1.16556e-19, cumulative = -3.35386e-19
ExecutionTime = 14.56 s  ClockTime = 15 s

Time = 0.053125

Courant Number mean: 0.0967046 max: 0.955101
smoothSolver:  Solving for Ux, Initial residual = 0.00224342, Final residual = 6.48588e-06, No Iterations 5
smoothSolver:  Solving for Uy, Initial residual = 0.00294623, Final residual = 8.82375e-06, No Iterations 5
DICPCG:  Solving for p, Initial residual = 0.0036397, Final residual = 0.000180074, No Iterations 88
time step continuity errors : sum local = 2.39031e-08, global = -4.56728e-20, cumulative = -3.81059e-19
DICPCG:  Solving for p, Initial residual = 0.00264921, Final residual = 9.22022e-07, No Iterations 225
time step continuity errors : sum local = 1.19269e-10, global = -1.11105e-20, cumulative = -3.92169e-19
ExecutionTime = 14.71 s  ClockTime = 15 s

Time = 0.05375

Courant Number mean: 0.0971219 max: 0.955359
smoothSolver:  Solving for Ux, Initial residual = 0.00221487, Final residual = 6.40474e-06, No Iterations 5
smoothSolver:  Solving for Uy, Initial residual = 0.00291643, Final residual = 8.7329e-06, No Iterations 5
DICPCG:  Solving for p, Initial residual = 0.00362208, Final residual = 0.000177339, No Iterations 88
time step continuity errors : sum local = 2.32491e-08, global = 1.58398e-20, cumulative = -3.76329e-19
DICPCG:  Solving for p, Initial residual = 0.00262951, Final residual = 9.15063e-07, No Iterations 225
time step continuity errors : sum local = 1.18345e-10, global = 1.35127e-19, cumulative = -2.41202e-19
ExecutionTime = 14.87 s  ClockTime = 15 s

Time = 0.054375

Courant Number mean: 0.0975354 max: 0.955613
smoothSolver:  Solving for Ux, Initial residual = 0.00218822, Final residual = 6.33005e-06, No Iterations 5
smoothSolver:  Solving for Uy, Initial residual = 0.00288503, Final residual = 8.6365e-06, No Iterations 5
DICPCG:  Solving for p, Initial residual = 0.0035849, Final residual = 0.000177639, No Iterations 88
time step continuity errors : sum local = 2.39728e-08, global = 3.80097e-21, cumulative = -2.37401e-19
DICPCG:  Solving for p, Initial residual = 0.00261117, Final residual = 9.42332e-07, No Iterations 225
time step continuity errors : sum local = 1.22004e-10, global = 9.24883e-20, cumulative = -1.44912e-19
ExecutionTime = 15.02 s  ClockTime = 15 s

Time = 0.055

Courant Number mean: 0.0979453 max: 0.955863
smoothSolver:  Solving for Ux, Initial residual = 0.0021604, Final residual = 6.25129e-06, No Iterations 5
smoothSolver:  Solving for Uy, Initial residual = 0.00285761, Final residual = 8.5533e-06, No Iterations 5
DICPCG:  Solving for p, Initial residual = 0.00357849, Final residual = 0.000178079, No Iterations 88
time step continuity errors : sum local = 2.38788e-08, global = 4.47788e-21, cumulative = -1.40435e-19
DICPCG:  Solving for p, Initial residual = 0.00259929, Final residual = 9.22735e-07, No Iterations 225
time step continuity errors : sum local = 1.1937e-10, global = -5.04967e-20, cumulative = -1.90931e-19
ExecutionTime = 15.18 s  ClockTime = 15 s

Time = 0.055625

Courant Number mean: 0.0983512 max: 0.956108
smoothSolver:  Solving for Ux, Initial residual = 0.00213583, Final residual = 6.18287e-06, No Iterations 5
smoothSolver:  Solving for Uy, Initial residual = 0.00282641, Final residual = 8.45708e-06, No Iterations 5
DICPCG:  Solving for p, Initial residual = 0.00354296, Final residual = 0.000170474, No Iterations 89
time step continuity errors : sum local = 2.37713e-08, global = 7.36629e-21, cumulative = -1.83565e-19
DICPCG:  Solving for p, Initial residual = 0.00255404, Final residual = 9.71485e-07, No Iterations 225
time step continuity errors : sum local = 1.25909e-10, global = -2.18266e-20, cumulative = -2.05392e-19
ExecutionTime = 15.34 s  ClockTime = 15 s

Time = 0.05625

Courant Number mean: 0.098753 max: 0.956351
smoothSolver:  Solving for Ux, Initial residual = 0.00210861, Final residual = 6.10482e-06, No Iterations 5
smoothSolver:  Solving for Uy, Initial residual = 0.002802, Final residual = 8.38357e-06, No Iterations 5
DICPCG:  Solving for p, Initial residual = 0.00354268, Final residual = 0.00017551, No Iterations 89
time step continuity errors : sum local = 2.452e-08, global = 5.83724e-21, cumulative = -1.99554e-19
DICPCG:  Solving for p, Initial residual = 0.00256474, Final residual = 9.82353e-07, No Iterations 224
time step continuity errors : sum local = 1.27236e-10, global = 3.225e-21, cumulative = -1.96329e-19
ExecutionTime = 15.49 s  ClockTime = 16 s

Time = 0.056875

Courant Number mean: 0.0991512 max: 0.956589
smoothSolver:  Solving for Ux, Initial residual = 0.00208692, Final residual = 6.04479e-06, No Iterations 5
smoothSolver:  Solving for Uy, Initial residual = 0.00276975, Final residual = 8.2833e-06, No Iterations 5
DICPCG:  Solving for p, Initial residual = 0.00350706, Final residual = 0.000165652, No Iterations 92
time step continuity errors : sum local = 2.45311e-08, global = -1.42569e-20, cumulative = -2.10586e-19
DICPCG:  Solving for p, Initial residual = 0.00246128, Final residual = 8.46933e-07, No Iterations 226
time step continuity errors : sum local = 1.09856e-10, global = -3.23157e-20, cumulative = -2.42902e-19
ExecutionTime = 15.65 s  ClockTime = 16 s

Time = 0.0575

Courant Number mean: 0.0995456 max: 0.956823
smoothSolver:  Solving for Ux, Initial residual = 0.00205921, Final residual = 5.96436e-06, No Iterations 5
smoothSolver:  Solving for Uy, Initial residual = 0.00275001, Final residual = 8.22444e-06, No Iterations 5
DICPCG:  Solving for p, Initial residual = 0.0035223, Final residual = 0.000167076, No Iterations 94
time step continuity errors : sum local = 2.51481e-08, global = 1.9961e-21, cumulative = -2.40906e-19
DICPCG:  Solving for p, Initial residual = 0.00247058, Final residual = 9.33734e-07, No Iterations 222
time step continuity errors : sum local = 1.2121e-10, global = 8.28778e-21, cumulative = -2.32618e-19
ExecutionTime = 15.8 s  ClockTime = 16 s

Time = 0.058125

Courant Number mean: 0.0999363 max: 0.957053
smoothSolver:  Solving for Ux, Initial residual = 0.00204203, Final residual = 5.91795e-06, No Iterations 5
smoothSolver:  Solving for Uy, Initial residual = 0.00271402, Final residual = 8.11161e-06, No Iterations 5
DICPCG:  Solving for p, Initial residual = 0.00348015, Final residual = 0.000163072, No Iterations 180
time step continuity errors : sum local = 2.11879e-08, global = -9.41859e-20, cumulative = -3.26804e-19
DICPCG:  Solving for p, Initial residual = 0.00246364, Final residual = 9.45758e-07, No Iterations 227
time step continuity errors : sum local = 1.22785e-10, global = 4.48089e-20, cumulative = -2.81995e-19
ExecutionTime = 16 s  ClockTime = 16 s

Time = 0.05875

Courant Number mean: 0.100323 max: 0.95728
smoothSolver:  Solving for Ux, Initial residual = 0.00201408, Final residual = 5.83795e-06, No Iterations 5
smoothSolver:  Solving for Uy, Initial residual = 0.00269289, Final residual = 8.05067e-06, No Iterations 5
DICPCG:  Solving for p, Initial residual = 0.0033819, Final residual = 0.000165776, No Iterations 88
time step continuity errors : sum local = 2.185e-08, global = 4.53132e-22, cumulative = -2.81542e-19
DICPCG:  Solving for p, Initial residual = 0.00240625, Final residual = 8.4847e-07, No Iterations 226
time step continuity errors : sum local = 1.10169e-10, global = 2.27227e-20, cumulative = -2.58819e-19
ExecutionTime = 16.15 s  ClockTime = 16 s

Time = 0.059375

Courant Number mean: 0.100707 max: 0.957503
smoothSolver:  Solving for Ux, Initial residual = 0.00199045, Final residual = 5.77095e-06, No Iterations 5
smoothSolver:  Solving for Uy, Initial residual = 0.00266888, Final residual = 7.97753e-06, No Iterations 5
DICPCG:  Solving for p, Initial residual = 0.00339144, Final residual = 0.000159272, No Iterations 88
time step continuity errors : sum local = 2.06977e-08, global = 3.51971e-20, cumulative = -2.23622e-19
DICPCG:  Solving for p, Initial residual = 0.00246464, Final residual = 9.03616e-07, No Iterations 166
time step continuity errors : sum local = 1.38184e-10, global = 6.84253e-21, cumulative = -2.1678e-19
ExecutionTime = 16.28 s  ClockTime = 16 s

Time = 0.06

Courant Number mean: 0.101088 max: 0.957722
smoothSolver:  Solving for Ux, Initial residual = 0.00196849, Final residual = 5.70917e-06, No Iterations 5
smoothSolver:  Solving for Uy, Initial residual = 0.00264388, Final residual = 7.90118e-06, No Iterations 5
DICPCG:  Solving for p, Initial residual = 0.00335299, Final residual = 0.000158562, No Iterations 88
time step continuity errors : sum local = 2.10112e-08, global = 1.75338e-20, cumulative = -1.99246e-19
DICPCG:  Solving for p, Initial residual = 0.00244088, Final residual = 9.80862e-07, No Iterations 225
time step continuity errors : sum local = 1.27341e-10, global = 2.91979e-20, cumulative = -1.70048e-19
ExecutionTime = 16.44 s  ClockTime = 17 s

Time = 0.060625

Courant Number mean: 0.101467 max: 0.957938
smoothSolver:  Solving for Ux, Initial residual = 0.00194649, Final residual = 5.64667e-06, No Iterations 5
smoothSolver:  Solving for Uy, Initial residual = 0.00262046, Final residual = 7.82994e-06, No Iterations 5
DICPCG:  Solving for p, Initial residual = 0.00334962, Final residual = 0.000166043, No Iterations 87
time step continuity errors : sum local = 2.17078e-08, global = -6.85765e-20, cumulative = -2.38624e-19
DICPCG:  Solving for p, Initial residual = 0.00241556, Final residual = 9.65406e-07, No Iterations 225
time step continuity errors : sum local = 1.25359e-10, global = -3.05972e-20, cumulative = -2.69222e-19
ExecutionTime = 16.59 s  ClockTime = 17 s

Time = 0.06125

Courant Number mean: 0.101843 max: 0.958151
smoothSolver:  Solving for Ux, Initial residual = 0.00192555, Final residual = 5.58754e-06, No Iterations 5
smoothSolver:  Solving for Uy, Initial residual = 0.00259641, Final residual = 7.75634e-06, No Iterations 5
DICPCG:  Solving for p, Initial residual = 0.0033277, Final residual = 0.000156123, No Iterations 88
time step continuity errors : sum local = 2.09158e-08, global = 8.71034e-20, cumulative = -1.82118e-19
DICPCG:  Solving for p, Initial residual = 0.0024008, Final residual = 9.90647e-07, No Iterations 225
time step continuity errors : sum local = 1.28715e-10, global = 7.26603e-21, cumulative = -1.74852e-19
ExecutionTime = 16.74 s  ClockTime = 17 s

Time = 0.061875

Courant Number mean: 0.102216 max: 0.95836
smoothSolver:  Solving for Ux, Initial residual = 0.00190429, Final residual = 5.52678e-06, No Iterations 5
smoothSolver:  Solving for Uy, Initial residual = 0.00257429, Final residual = 7.68917e-06, No Iterations 5
DICPCG:  Solving for p, Initial residual = 0.00330757, Final residual = 0.000155087, No Iterations 88
time step continuity errors : sum local = 2.06105e-08, global = 2.24496e-20, cumulative = -1.52403e-19
DICPCG:  Solving for p, Initial residual = 0.00240147, Final residual = 9.55708e-07, No Iterations 225
time step continuity errors : sum local = 1.24185e-10, global = 9.73953e-20, cumulative = -5.50072e-20
ExecutionTime = 16.91 s  ClockTime = 17 s

Time = 0.0625

Courant Number mean: 0.102586 max: 0.958566
smoothSolver:  Solving for Ux, Initial residual = 0.00188469, Final residual = 5.47162e-06, No Iterations 5
smoothSolver:  Solving for Uy, Initial residual = 0.00255039, Final residual = 7.61579e-06, No Iterations 5
DICPCG:  Solving for p, Initial residual = 0.00327283, Final residual = 0.000159025, No Iterations 88
time step continuity errors : sum local = 2.17285e-08, global = 5.57471e-20, cumulative = 7.3989e-22
DICPCG:  Solving for p, Initial residual = 0.00238591, Final residual = 9.94314e-07, No Iterations 225
time step continuity errors : sum local = 1.29305e-10, global = -1.52849e-20, cumulative = -1.4545e-20
ExecutionTime = 17.12 s  ClockTime = 17 s

Time = 0.063125

Courant Number mean: 0.102953 max: 0.958769
smoothSolver:  Solving for Ux, Initial residual = 0.00186366, Final residual = 5.41121e-06, No Iterations 5
smoothSolver:  Solving for Uy, Initial residual = 0.00253029, Final residual = 7.55518e-06, No Iterations 5
DICPCG:  Solving for p, Initial residual = 0.00327282, Final residual = 0.000160913, No Iterations 88
time step continuity errors : sum local = 2.19641e-08, global = 6.36074e-20, cumulative = 4.90624e-20
DICPCG:  Solving for p, Initial residual = 0.00237968, Final residual = 9.33315e-07, No Iterations 225
time step continuity errors : sum local = 1.21377e-10, global = 5.03773e-20, cumulative = 9.94397e-20
ExecutionTime = 17.28 s  ClockTime = 17 s

Time = 0.06375

Courant Number mean: 0.103317 max: 0.958969
smoothSolver:  Solving for Ux, Initial residual = 0.00184566, Final residual = 5.36091e-06, No Iterations 5
smoothSolver:  Solving for Uy, Initial residual = 0.00250605, Final residual = 7.48018e-06, No Iterations 5
DICPCG:  Solving for p, Initial residual = 0.00324458, Final residual = 0.000159327, No Iterations 89
time step continuity errors : sum local = 2.25977e-08, global = 1.74213e-20, cumulative = 1.16861e-19
DICPCG:  Solving for p, Initial residual = 0.00234614, Final residual = 8.5071e-07, No Iterations 226
time step continuity errors : sum local = 1.10696e-10, global = 6.82528e-22, cumulative = 1.17544e-19
ExecutionTime = 17.44 s  ClockTime = 18 s

Time = 0.064375

Courant Number mean: 0.103679 max: 0.959165
smoothSolver:  Solving for Ux, Initial residual = 0.00182452, Final residual = 5.29985e-06, No Iterations 5
smoothSolver:  Solving for Uy, Initial residual = 0.00248862, Final residual = 7.42827e-06, No Iterations 5
DICPCG:  Solving for p, Initial residual = 0.0032545, Final residual = 0.000152462, No Iterations 91
time step continuity errors : sum local = 2.19442e-08, global = -4.16754e-20, cumulative = 7.58681e-20
DICPCG:  Solving for p, Initial residual = 0.00229822, Final residual = 9.97071e-07, No Iterations 222
time step continuity errors : sum local = 1.29933e-10, global = -5.65116e-20, cumulative = 1.93564e-20
ExecutionTime = 17.59 s  ClockTime = 18 s

Time = 0.065

Courant Number mean: 0.104037 max: 0.959359
smoothSolver:  Solving for Ux, Initial residual = 0.00180926, Final residual = 5.25802e-06, No Iterations 5
smoothSolver:  Solving for Uy, Initial residual = 0.00246246, Final residual = 7.34655e-06, No Iterations 5
DICPCG:  Solving for p, Initial residual = 0.00321592, Final residual = 0.00015819, No Iterations 94
time step continuity errors : sum local = 2.40797e-08, global = -6.99049e-20, cumulative = -5.05485e-20
DICPCG:  Solving for p, Initial residual = 0.00226552, Final residual = 8.62412e-07, No Iterations 226
time step continuity errors : sum local = 1.12373e-10, global = 6.91482e-21, cumulative = -4.36337e-20
ExecutionTime = 17.75 s  ClockTime = 18 s

Time = 0.065625

Courant Number mean: 0.104393 max: 0.95955
smoothSolver:  Solving for Ux, Initial residual = 0.00178724, Final residual = 5.19353e-06, No Iterations 5
smoothSolver:  Solving for Uy, Initial residual = 0.00244942, Final residual = 7.30842e-06, No Iterations 5
DICPCG:  Solving for p, Initial residual = 0.00324919, Final residual = 0.000153619, No Iterations 180
time step continuity errors : sum local = 2.00619e-08, global = -3.12089e-20, cumulative = -7.48425e-20
DICPCG:  Solving for p, Initial residual = 0.00230159, Final residual = 8.9403e-07, No Iterations 222
time step continuity errors : sum local = 1.16619e-10, global = -6.99086e-20, cumulative = -1.44751e-19
ExecutionTime = 17.94 s  ClockTime = 18 s

Time = 0.06625

Courant Number mean: 0.104746 max: 0.959738
smoothSolver:  Solving for Ux, Initial residual = 0.00177082, Final residual = 5.14833e-06, No Iterations 5
smoothSolver:  Solving for Uy, Initial residual = 0.00242412, Final residual = 7.23174e-06, No Iterations 5
DICPCG:  Solving for p, Initial residual = 0.00313615, Final residual = 0.000150316, No Iterations 88
time step continuity errors : sum local = 2.01163e-08, global = 6.10931e-20, cumulative = -8.3658e-20
DICPCG:  Solving for p, Initial residual = 0.00223131, Final residual = 9.89756e-07, No Iterations 225
time step continuity errors : sum local = 1.29002e-10, global = 1.37871e-21, cumulative = -8.22793e-20
ExecutionTime = 18.1 s  ClockTime = 18 s

Time = 0.066875

Courant Number mean: 0.105096 max: 0.959923
smoothSolver:  Solving for Ux, Initial residual = 0.00175229, Final residual = 5.0953e-06, No Iterations 5
smoothSolver:  Solving for Uy, Initial residual = 0.00240565, Final residual = 7.17581e-06, No Iterations 5
DICPCG:  Solving for p, Initial residual = 0.00314115, Final residual = 0.000155404, No Iterations 87
time step continuity errors : sum local = 2.06253e-08, global = -5.28332e-20, cumulative = -1.35112e-19
DICPCG:  Solving for p, Initial residual = 0.00227276, Final residual = 9.46596e-07, No Iterations 225
time step continuity errors : sum local = 1.23349e-10, global = 1.16327e-20, cumulative = -1.2348e-19
ExecutionTime = 18.25 s  ClockTime = 18 s

Time = 0.0675

Courant Number mean: 0.105444 max: 0.960105
smoothSolver:  Solving for Ux, Initial residual = 0.00173555, Final residual = 5.04808e-06, No Iterations 5
smoothSolver:  Solving for Uy, Initial residual = 0.00238543, Final residual = 7.11382e-06, No Iterations 5
DICPCG:  Solving for p, Initial residual = 0.00311962, Final residual = 0.000148503, No Iterations 88
time step continuity errors : sum local = 2.02343e-08, global = -5.92916e-20, cumulative = -1.82771e-19
DICPCG:  Solving for p, Initial residual = 0.00225722, Final residual = 9.84926e-07, No Iterations 225
time step continuity errors : sum local = 1.28399e-10, global = -9.52018e-21, cumulative = -1.92291e-19
ExecutionTime = 18.42 s  ClockTime = 19 s

Time = 0.068125

Courant Number mean: 0.105788 max: 0.960285
smoothSolver:  Solving for Ux, Initial residual = 0.00171783, Final residual = 4.99713e-06, No Iterations 5
smoothSolver:  Solving for Uy, Initial residual = 0.0023679, Final residual = 7.0609e-06, No Iterations 5
[...]
time step continuity errors : sum local = 1.08347e-10, global = 4.03937e-20, cumulative = 7.08551e-19
ExecutionTime = 113.8 s  ClockTime = 114 s

Time = 0.48375

Courant Number mean: 0.203411 max: 0.974411
smoothSolver:  Solving for Ux, Initial residual = 0.000318766, Final residual = 9.76184e-06, No Iterations 3
smoothSolver:  Solving for Uy, Initial residual = 0.000336287, Final residual = 3.21624e-06, No Iterations 4
DICPCG:  Solving for p, Initial residual = 0.000535076, Final residual = 2.414e-05, No Iterations 64
time step continuity errors : sum local = 3.46075e-09, global = -4.45415e-20, cumulative = 6.6401e-19
DICPCG:  Solving for p, Initial residual = 0.000421635, Final residual = 7.92552e-07, No Iterations 209
time step continuity errors : sum local = 1.10728e-10, global = -5.87113e-20, cumulative = 6.05298e-19
ExecutionTime = 113.94 s  ClockTime = 114 s

Time = 0.484375

Courant Number mean: 0.203494 max: 0.974412
smoothSolver:  Solving for Ux, Initial residual = 0.000318055, Final residual = 9.74002e-06, No Iterations 3
smoothSolver:  Solving for Uy, Initial residual = 0.000335888, Final residual = 3.21249e-06, No Iterations 4
DICPCG:  Solving for p, Initial residual = 0.000533515, Final residual = 2.58688e-05, No Iterations 63
time step continuity errors : sum local = 3.92885e-09, global = 8.87345e-20, cumulative = 6.94033e-19
DICPCG:  Solving for p, Initial residual = 0.000420111, Final residual = 7.89693e-07, No Iterations 209
time step continuity errors : sum local = 1.10332e-10, global = 8.90772e-21, cumulative = 7.02941e-19
ExecutionTime = 114.07 s  ClockTime = 115 s

Time = 0.485

Courant Number mean: 0.203577 max: 0.974413
smoothSolver:  Solving for Ux, Initial residual = 0.000317749, Final residual = 9.73054e-06, No Iterations 3
smoothSolver:  Solving for Uy, Initial residual = 0.000335065, Final residual = 3.20449e-06, No Iterations 4
DICPCG:  Solving for p, Initial residual = 0.000535559, Final residual = 2.48291e-05, No Iterations 65
time step continuity errors : sum local = 3.73684e-09, global = 2.9679e-20, cumulative = 7.3262e-19
DICPCG:  Solving for p, Initial residual = 0.000421458, Final residual = 8.13864e-07, No Iterations 209
time step continuity errors : sum local = 1.13713e-10, global = 6.15282e-20, cumulative = 7.94148e-19
ExecutionTime = 114.21 s  ClockTime = 115 s

Time = 0.485625

Courant Number mean: 0.203659 max: 0.974414
smoothSolver:  Solving for Ux, Initial residual = 0.000316881, Final residual = 9.70374e-06, No Iterations 3
smoothSolver:  Solving for Uy, Initial residual = 0.000334886, Final residual = 3.20284e-06, No Iterations 4
DICPCG:  Solving for p, Initial residual = 0.000535352, Final residual = 2.53075e-05, No Iterations 64
time step continuity errors : sum local = 4.10727e-09, global = -9.45967e-20, cumulative = 6.99551e-19
DICPCG:  Solving for p, Initial residual = 0.000420487, Final residual = 7.91694e-07, No Iterations 209
time step continuity errors : sum local = 1.10642e-10, global = 7.63146e-20, cumulative = 7.75866e-19
ExecutionTime = 114.36 s  ClockTime = 115 s

Time = 0.48625

Courant Number mean: 0.203741 max: 0.974415
smoothSolver:  Solving for Ux, Initial residual = 0.000316803, Final residual = 9.7013e-06, No Iterations 3
smoothSolver:  Solving for Uy, Initial residual = 0.000333805, Final residual = 3.19229e-06, No Iterations 4
DICPCG:  Solving for p, Initial residual = 0.000538056, Final residual = 2.25915e-05, No Iterations 154
time step continuity errors : sum local = 3.15924e-09, global = 4.72315e-20, cumulative = 8.23097e-19
DICPCG:  Solving for p, Initial residual = 0.000423392, Final residual = 7.97445e-07, No Iterations 210
time step continuity errors : sum local = 1.11407e-10, global = -1.70568e-19, cumulative = 6.52529e-19
ExecutionTime = 114.53 s  ClockTime = 115 s

Time = 0.486875

Courant Number mean: 0.203824 max: 0.974415
smoothSolver:  Solving for Ux, Initial residual = 0.000315918, Final residual = 9.67465e-06, No Iterations 3
smoothSolver:  Solving for Uy, Initial residual = 0.000333493, Final residual = 3.1896e-06, No Iterations 4
DICPCG:  Solving for p, Initial residual = 0.000530374, Final residual = 2.57329e-05, No Iterations 64
time step continuity errors : sum local = 3.77451e-09, global = 6.96664e-20, cumulative = 7.22195e-19
DICPCG:  Solving for p, Initial residual = 0.000417207, Final residual = 9.98026e-07, No Iterations 121
time step continuity errors : sum local = 1.5841e-10, global = 5.52958e-20, cumulative = 7.77491e-19
ExecutionTime = 114.62 s  ClockTime = 115 s

Time = 0.4875

Courant Number mean: 0.203906 max: 0.974416
smoothSolver:  Solving for Ux, Initial residual = 0.000315451, Final residual = 9.66019e-06, No Iterations 3
smoothSolver:  Solving for Uy, Initial residual = 0.000332896, Final residual = 3.18387e-06, No Iterations 4
DICPCG:  Solving for p, Initial residual = 0.000530394, Final residual = 2.58139e-05, No Iterations 63
time step continuity errors : sum local = 3.60426e-09, global = 2.83063e-20, cumulative = 8.05797e-19
DICPCG:  Solving for p, Initial residual = 0.000417976, Final residual = 9.86035e-07, No Iterations 194
time step continuity errors : sum local = 1.37732e-10, global = -4.38972e-20, cumulative = 7.619e-19
ExecutionTime = 114.81 s  ClockTime = 115 s

Time = 0.488125

Courant Number mean: 0.203988 max: 0.974417
smoothSolver:  Solving for Ux, Initial residual = 0.000314855, Final residual = 9.64197e-06, No Iterations 3
smoothSolver:  Solving for Uy, Initial residual = 0.00033234, Final residual = 3.17861e-06, No Iterations 4
DICPCG:  Solving for p, Initial residual = 0.000525679, Final residual = 2.5013e-05, No Iterations 63
time step continuity errors : sum local = 3.64815e-09, global = -1.34563e-19, cumulative = 6.27337e-19
DICPCG:  Solving for p, Initial residual = 0.000414513, Final residual = 9.9464e-07, No Iterations 120
time step continuity errors : sum local = 1.49312e-10, global = -1.03407e-20, cumulative = 6.16996e-19
ExecutionTime = 114.91 s  ClockTime = 115 s

Time = 0.48875

Courant Number mean: 0.20407 max: 0.974418
smoothSolver:  Solving for Ux, Initial residual = 0.000314386, Final residual = 9.62752e-06, No Iterations 3
smoothSolver:  Solving for Uy, Initial residual = 0.000331723, Final residual = 3.17266e-06, No Iterations 4
DICPCG:  Solving for p, Initial residual = 0.000526111, Final residual = 2.19499e-05, No Iterations 64
time step continuity errors : sum local = 3.07269e-09, global = -4.31864e-20, cumulative = 5.7381e-19
DICPCG:  Solving for p, Initial residual = 0.000414422, Final residual = 9.73783e-07, No Iterations 208
time step continuity errors : sum local = 1.36105e-10, global = -1.78729e-20, cumulative = 5.55937e-19
ExecutionTime = 115.04 s  ClockTime = 116 s

Time = 0.489375

Courant Number mean: 0.204152 max: 0.974419
smoothSolver:  Solving for Ux, Initial residual = 0.000313757, Final residual = 9.60827e-06, No Iterations 3
smoothSolver:  Solving for Uy, Initial residual = 0.000331225, Final residual = 3.16796e-06, No Iterations 4
DICPCG:  Solving for p, Initial residual = 0.00052367, Final residual = 2.45247e-05, No Iterations 63
time step continuity errors : sum local = 3.61643e-09, global = -3.14001e-20, cumulative = 5.24537e-19
DICPCG:  Solving for p, Initial residual = 0.000412828, Final residual = 7.76885e-07, No Iterations 209
time step continuity errors : sum local = 1.08539e-10, global = 3.45691e-20, cumulative = 5.59106e-19
ExecutionTime = 115.18 s  ClockTime = 116 s

Time = 0.49

Courant Number mean: 0.204233 max: 0.97442
smoothSolver:  Solving for Ux, Initial residual = 0.000313339, Final residual = 9.59535e-06, No Iterations 3
smoothSolver:  Solving for Uy, Initial residual = 0.000330552, Final residual = 3.16144e-06, No Iterations 4
DICPCG:  Solving for p, Initial residual = 0.000525062, Final residual = 2.35797e-05, No Iterations 64
time step continuity errors : sum local = 3.38102e-09, global = -6.30094e-20, cumulative = 4.96096e-19
DICPCG:  Solving for p, Initial residual = 0.000413779, Final residual = 9.90478e-07, No Iterations 208
time step continuity errors : sum local = 1.3844e-10, global = -5.09911e-20, cumulative = 4.45105e-19
ExecutionTime = 115.31 s  ClockTime = 116 s

Time = 0.490625

Courant Number mean: 0.204315 max: 0.974421
smoothSolver:  Solving for Ux, Initial residual = 0.00031264, Final residual = 9.5739e-06, No Iterations 3
smoothSolver:  Solving for Uy, Initial residual = 0.000330159, Final residual = 3.15775e-06, No Iterations 4
DICPCG:  Solving for p, Initial residual = 0.00052351, Final residual = 2.52897e-05, No Iterations 63
time step continuity errors : sum local = 3.84419e-09, global = -4.18502e-20, cumulative = 4.03255e-19
DICPCG:  Solving for p, Initial residual = 0.000412242, Final residual = 7.76834e-07, No Iterations 209
time step continuity errors : sum local = 1.08573e-10, global = 1.67087e-19, cumulative = 5.70342e-19
ExecutionTime = 115.45 s  ClockTime = 116 s

Time = 0.49125

Courant Number mean: 0.204397 max: 0.974422
smoothSolver:  Solving for Ux, Initial residual = 0.000312335, Final residual = 9.56445e-06, No Iterations 3
smoothSolver:  Solving for Uy, Initial residual = 0.000329356, Final residual = 3.14994e-06, No Iterations 4
DICPCG:  Solving for p, Initial residual = 0.000525362, Final residual = 2.44475e-05, No Iterations 65
time step continuity errors : sum local = 3.67942e-09, global = -1.98349e-20, cumulative = 5.50507e-19
DICPCG:  Solving for p, Initial residual = 0.000413633, Final residual = 8.04738e-07, No Iterations 209
time step continuity errors : sum local = 1.12478e-10, global = 1.07348e-19, cumulative = 6.57855e-19
ExecutionTime = 115.59 s  ClockTime = 116 s

Time = 0.491875

Courant Number mean: 0.204478 max: 0.974423
smoothSolver:  Solving for Ux, Initial residual = 0.000311483, Final residual = 9.53811e-06, No Iterations 3
smoothSolver:  Solving for Uy, Initial residual = 0.000329175, Final residual = 3.14829e-06, No Iterations 4
DICPCG:  Solving for p, Initial residual = 0.000525146, Final residual = 2.50706e-05, No Iterations 64
time step continuity errors : sum local = 4.06541e-09, global = 2.79723e-20, cumulative = 6.85827e-19
DICPCG:  Solving for p, Initial residual = 0.00041258, Final residual = 7.85043e-07, No Iterations 209
time step continuity errors : sum local = 1.0975e-10, global = 1.42988e-19, cumulative = 8.28815e-19
ExecutionTime = 115.72 s  ClockTime = 116 s

Time = 0.4925

Courant Number mean: 0.20456 max: 0.974424
smoothSolver:  Solving for Ux, Initial residual = 0.000311399, Final residual = 9.53551e-06, No Iterations 3
smoothSolver:  Solving for Uy, Initial residual = 0.000328121, Final residual = 3.13801e-06, No Iterations 4
DICPCG:  Solving for p, Initial residual = 0.000528016, Final residual = 2.26614e-05, No Iterations 154
time step continuity errors : sum local = 3.17e-09, global = -2.47289e-20, cumulative = 8.04086e-19
DICPCG:  Solving for p, Initial residual = 0.000415429, Final residual = 9.99371e-07, No Iterations 209
time step continuity errors : sum local = 1.39649e-10, global = 6.95054e-21, cumulative = 8.11037e-19
ExecutionTime = 115.9 s  ClockTime = 116 s

Time = 0.493125

Courant Number mean: 0.204641 max: 0.974425
smoothSolver:  Solving for Ux, Initial residual = 0.000310529, Final residual = 9.50928e-06, No Iterations 3
smoothSolver:  Solving for Uy, Initial residual = 0.000327813, Final residual = 3.13535e-06, No Iterations 4
DICPCG:  Solving for p, Initial residual = 0.000520513, Final residual = 2.53676e-05, No Iterations 64
time step continuity errors : sum local = 3.72336e-09, global = 1.13761e-19, cumulative = 9.24798e-19
DICPCG:  Solving for p, Initial residual = 0.000409448, Final residual = 9.94741e-07, No Iterations 121
time step continuity errors : sum local = 1.57972e-10, global = -1.82709e-20, cumulative = 9.06527e-19
ExecutionTime = 116 s  ClockTime = 117 s

Time = 0.49375

Courant Number mean: 0.204723 max: 0.974426
smoothSolver:  Solving for Ux, Initial residual = 0.000310068, Final residual = 9.49499e-06, No Iterations 3
smoothSolver:  Solving for Uy, Initial residual = 0.000327227, Final residual = 3.1297e-06, No Iterations 4
DICPCG:  Solving for p, Initial residual = 0.000520424, Final residual = 2.57329e-05, No Iterations 63
time step continuity errors : sum local = 3.59415e-09, global = -4.18734e-20, cumulative = 8.64653e-19
DICPCG:  Solving for p, Initial residual = 0.00041019, Final residual = 9.87244e-07, No Iterations 194
time step continuity errors : sum local = 1.37952e-10, global = -1.08642e-20, cumulative = 8.53789e-19
ExecutionTime = 116.13 s  ClockTime = 117 s

Time = 0.494375

Courant Number mean: 0.204804 max: 0.974427
smoothSolver:  Solving for Ux, Initial residual = 0.000309479, Final residual = 9.47699e-06, No Iterations 3
smoothSolver:  Solving for Uy, Initial residual = 0.000326683, Final residual = 9.98927e-06, No Iterations 3
DICPCG:  Solving for p, Initial residual = 0.000445592, Final residual = 2.1038e-05, No Iterations 64
time step continuity errors : sum local = 3.12223e-09, global = 1.14842e-20, cumulative = 8.65273e-19
DICPCG:  Solving for p, Initial residual = 0.000314675, Final residual = 9.91688e-07, No Iterations 177
time step continuity errors : sum local = 1.39025e-10, global = 7.02798e-20, cumulative = 9.35553e-19
ExecutionTime = 116.25 s  ClockTime = 117 s

Time = 0.495

Courant Number mean: 0.204884 max: 0.974428
smoothSolver:  Solving for Ux, Initial residual = 0.000308848, Final residual = 9.45744e-06, No Iterations 3
smoothSolver:  Solving for Uy, Initial residual = 0.000326284, Final residual = 9.97715e-06, No Iterations 3
DICPCG:  Solving for p, Initial residual = 0.000448859, Final residual = 2.16767e-05, No Iterations 61
time step continuity errors : sum local = 3.093e-09, global = 2.34138e-20, cumulative = 9.58967e-19
DICPCG:  Solving for p, Initial residual = 0.000315199, Final residual = 9.86868e-07, No Iterations 196
time step continuity errors : sum local = 1.38254e-10, global = -6.5174e-20, cumulative = 8.93793e-19
ExecutionTime = 116.38 s  ClockTime = 117 s

Time = 0.495625

Courant Number mean: 0.204965 max: 0.974429
smoothSolver:  Solving for Ux, Initial residual = 0.00030837, Final residual = 9.4429e-06, No Iterations 3
smoothSolver:  Solving for Uy, Initial residual = 0.00032563, Final residual = 9.95738e-06, No Iterations 3
DICPCG:  Solving for p, Initial residual = 0.000445266, Final residual = 2.1132e-05, No Iterations 64
time step continuity errors : sum local = 3.19581e-09, global = -4.53518e-20, cumulative = 8.48441e-19
DICPCG:  Solving for p, Initial residual = 0.000313818, Final residual = 9.56134e-07, No Iterations 196
time step continuity errors : sum local = 1.34293e-10, global = 5.35088e-20, cumulative = 9.0195e-19
ExecutionTime = 116.51 s  ClockTime = 117 s

Time = 0.49625

Courant Number mean: 0.205045 max: 0.97443
smoothSolver:  Solving for Ux, Initial residual = 0.000307743, Final residual = 9.42335e-06, No Iterations 3
smoothSolver:  Solving for Uy, Initial residual = 0.000325236, Final residual = 9.94525e-06, No Iterations 3
DICPCG:  Solving for p, Initial residual = 0.000448703, Final residual = 2.14626e-05, No Iterations 49
time step continuity errors : sum local = 3.17398e-09, global = -6.60414e-20, cumulative = 8.35909e-19
DICPCG:  Solving for p, Initial residual = 0.000317126, Final residual = 9.55173e-07, No Iterations 178
time step continuity errors : sum local = 1.33864e-10, global = 7.19163e-20, cumulative = 9.07825e-19
ExecutionTime = 116.62 s  ClockTime = 117 s

Time = 0.496875

Courant Number mean: 0.205126 max: 0.974431
smoothSolver:  Solving for Ux, Initial residual = 0.000307287, Final residual = 9.40958e-06, No Iterations 3
smoothSolver:  Solving for Uy, Initial residual = 0.000324576, Final residual = 9.92515e-06, No Iterations 3
DICPCG:  Solving for p, Initial residual = 0.00044854, Final residual = 2.15449e-05, No Iterations 74
time step continuity errors : sum local = 3.39976e-09, global = -1.51971e-20, cumulative = 8.92628e-19
DICPCG:  Solving for p, Initial residual = 0.000317793, Final residual = 9.51689e-07, No Iterations 207
time step continuity errors : sum local = 1.33052e-10, global = 1.53188e-19, cumulative = 1.04582e-18
ExecutionTime = 116.76 s  ClockTime = 117 s

Time = 0.4975

Courant Number mean: 0.205206 max: 0.974432
smoothSolver:  Solving for Ux, Initial residual = 0.000306666, Final residual = 9.39011e-06, No Iterations 3
smoothSolver:  Solving for Uy, Initial residual = 0.000324183, Final residual = 9.91297e-06, No Iterations 3
DICPCG:  Solving for p, Initial residual = 0.00045393, Final residual = 2.19826e-05, No Iterations 65
time step continuity errors : sum local = 3.39482e-09, global = -1.05281e-20, cumulative = 1.03529e-18
DICPCG:  Solving for p, Initial residual = 0.000318193, Final residual = 9.89848e-07, No Iterations 197
time step continuity errors : sum local = 1.38847e-10, global = -1.45423e-19, cumulative = 8.89864e-19
ExecutionTime = 116.89 s  ClockTime = 117 s

Time = 0.498125

Courant Number mean: 0.205286 max: 0.974433
smoothSolver:  Solving for Ux, Initial residual = 0.000306429, Final residual = 9.38304e-06, No Iterations 3
smoothSolver:  Solving for Uy, Initial residual = 0.00032325, Final residual = 9.88451e-06, No Iterations 3
DICPCG:  Solving for p, Initial residual = 0.000447268, Final residual = 1.89393e-05, No Iterations 154
time step continuity errors : sum local = 2.6486e-09, global = -4.77732e-20, cumulative = 8.42091e-19
DICPCG:  Solving for p, Initial residual = 0.000314852, Final residual = 8.81319e-07, No Iterations 208
time step continuity errors : sum local = 1.23212e-10, global = -3.76786e-20, cumulative = 8.04413e-19
ExecutionTime = 117.06 s  ClockTime = 118 s

Time = 0.49875

Courant Number mean: 0.205366 max: 0.974434
smoothSolver:  Solving for Ux, Initial residual = 0.000305686, Final residual = 9.36049e-06, No Iterations 3
smoothSolver:  Solving for Uy, Initial residual = 0.000322873, Final residual = 9.87337e-06, No Iterations 3
DICPCG:  Solving for p, Initial residual = 0.000442539, Final residual = 2.13841e-05, No Iterations 69
time step continuity errors : sum local = 3.1618e-09, global = 8.55354e-20, cumulative = 8.89948e-19
DICPCG:  Solving for p, Initial residual = 0.000312535, Final residual = 9.61853e-07, No Iterations 207
time step continuity errors : sum local = 1.34504e-10, global = 9.54334e-20, cumulative = 9.85381e-19
ExecutionTime = 117.2 s  ClockTime = 118 s

Time = 0.499375

Courant Number mean: 0.205446 max: 0.974435
smoothSolver:  Solving for Ux, Initial residual = 0.000305142, Final residual = 9.34359e-06, No Iterations 3
smoothSolver:  Solving for Uy, Initial residual = 0.0003224, Final residual = 9.85879e-06, No Iterations 3
DICPCG:  Solving for p, Initial residual = 0.000445257, Final residual = 2.20054e-05, No Iterations 61
time step continuity errors : sum local = 3.12152e-09, global = 5.92828e-20, cumulative = 1.04466e-18
DICPCG:  Solving for p, Initial residual = 0.000312815, Final residual = 9.84682e-07, No Iterations 180
time step continuity errors : sum local = 1.38077e-10, global = -5.02318e-20, cumulative = 9.94432e-19
ExecutionTime = 117.32 s  ClockTime = 118 s

Time = 0.5

Courant Number mean: 0.205526 max: 0.974436
smoothSolver:  Solving for Ux, Initial residual = 0.000304625, Final residual = 9.32789e-06, No Iterations 3
smoothSolver:  Solving for Uy, Initial residual = 0.000321816, Final residual = 9.84105e-06, No Iterations 3
DICPCG:  Solving for p, Initial residual = 0.000439652, Final residual = 2.19154e-05, No Iterations 63
time step continuity errors : sum local = 3.28556e-09, global = -3.00078e-20, cumulative = 9.64424e-19
DICPCG:  Solving for p, Initial residual = 0.000310223, Final residual = 9.09909e-07, No Iterations 207
time step continuity errors : sum local = 1.27307e-10, global = -6.25897e-20, cumulative = 9.01835e-19
ExecutionTime = 117.52 s  ClockTime = 118 s

End

