/*---------------------------------------------------------------------------*\
  =========                 |
  \\      /  F ield         | OpenFOAM: The Open Source CFD Toolbox
   \\    /   O peration     | Website:  https://openfoam.org
    \\  /    A nd           | Version:  7
     \\/     M anipulation  |
\*---------------------------------------------------------------------------*/
Build  : 7
Exec   : icoFoam
Date   : Feb 21 2024
Time   : 16:58:53
Host   : "c205-004.frontera.tacc.utexas.edu"
PID    : 228392
I/O    : uncollated
Case   : /work2/09042/mihiro10/frontera/COE-347-SP24/mainclassrepo/OpenFOAM/v7/cavity/cavity_160x160_re100
nProcs : 1
sigFpe : Enabling floating point exception trapping (FOAM_SIGFPE).
fileModificationChecking : Monitoring run-time modified files using timeStampMaster (fileModificationSkew 10)
allowSystemOperations : Allowing user-supplied system call operations

// * * * * * * * * * * * * * * * * * * * * * * * * * * * * * * * * * * * * * //
Create time

Create mesh for time = 0

Reading transportProperties

Reading field p

Reading field U

Reading/calculating face flux field phi


Starting time loop

Time = 0.000625

Courant Number mean: 0 max: 0
smoothSolver:  Solving for Ux, Initial residual = 1, Final residual = 7.68518e-06, No Iterations 17
smoothSolver:  Solving for Uy, Initial residual = 0, Final residual = 0, No Iterations 0
DICPCG:  Solving for p, Initial residual = 1, Final residual = 0.0497373, No Iterations 200
time step continuity errors : sum local = 4.57388e-06, global = -2.06485e-20, cumulative = -2.06485e-20
DICPCG:  Solving for p, Initial residual = 0.522518, Final residual = 9.43224e-07, No Iterations 282
time step continuity errors : sum local = 1.5523e-10, global = -3.66239e-20, cumulative = -5.72724e-20
ExecutionTime = 0.38 s  ClockTime = 1 s

Time = 0.00125

Courant Number mean: 0.0172006 max: 0.62372
smoothSolver:  Solving for Ux, Initial residual = 0.197546, Final residual = 8.67757e-06, No Iterations 17
smoothSolver:  Solving for Uy, Initial residual = 0.318202, Final residual = 8.40252e-06, No Iterations 19
DICPCG:  Solving for p, Initial residual = 0.390464, Final residual = 0.0188628, No Iterations 192
time step continuity errors : sum local = 2.84379e-06, global = -2.46169e-20, cumulative = -8.18893e-20
DICPCG:  Solving for p, Initial residual = 0.306741, Final residual = 9.86485e-07, No Iterations 275
time step continuity errors : sum local = 1.57877e-10, global = 1.70971e-20, cumulative = -6.47922e-20
ExecutionTime = 0.62 s  ClockTime = 1 s

Time = 0.001875

Courant Number mean: 0.0267631 max: 0.785334
smoothSolver:  Solving for Ux, Initial residual = 0.0868279, Final residual = 7.51487e-06, No Iterations 16
smoothSolver:  Solving for Uy, Initial residual = 0.140506, Final residual = 6.72723e-06, No Iterations 18
DICPCG:  Solving for p, Initial residual = 0.167314, Final residual = 0.00796288, No Iterations 189
time step continuity errors : sum local = 1.0651e-06, global = 6.4619e-20, cumulative = -1.73274e-22
DICPCG:  Solving for p, Initial residual = 0.135255, Final residual = 9.55228e-07, No Iterations 269
time step continuity errors : sum local = 1.29146e-10, global = -4.32035e-20, cumulative = -4.33768e-20
ExecutionTime = 0.85 s  ClockTime = 1 s

Time = 0.0025

Courant Number mean: 0.0333831 max: 0.841187
smoothSolver:  Solving for Ux, Initial residual = 0.0548337, Final residual = 9.19871e-06, No Iterations 15
smoothSolver:  Solving for Uy, Initial residual = 0.0875466, Final residual = 7.39289e-06, No Iterations 17
DICPCG:  Solving for p, Initial residual = 0.0832628, Final residual = 0.00409647, No Iterations 190
time step continuity errors : sum local = 5.28587e-07, global = -1.48151e-20, cumulative = -5.81919e-20
DICPCG:  Solving for p, Initial residual = 0.0688502, Final residual = 9.34888e-07, No Iterations 266
time step continuity errors : sum local = 1.21277e-10, global = 1.03533e-20, cumulative = -4.78386e-20
ExecutionTime = 1.08 s  ClockTime = 1 s

Time = 0.003125

Courant Number mean: 0.0386333 max: 0.868071
smoothSolver:  Solving for Ux, Initial residual = 0.0405716, Final residual = 7.29328e-06, No Iterations 15
smoothSolver:  Solving for Uy, Initial residual = 0.0632471, Final residual = 9.40741e-06, No Iterations 16
DICPCG:  Solving for p, Initial residual = 0.0556776, Final residual = 0.00257117, No Iterations 189
time step continuity errors : sum local = 3.311e-07, global = -1.33011e-20, cumulative = -6.11397e-20
DICPCG:  Solving for p, Initial residual = 0.0454997, Final residual = 9.41152e-07, No Iterations 261
time step continuity errors : sum local = 1.21318e-10, global = 8.60839e-21, cumulative = -5.25313e-20
ExecutionTime = 1.32 s  ClockTime = 2 s

Time = 0.00375

Courant Number mean: 0.0430705 max: 0.88428
smoothSolver:  Solving for Ux, Initial residual = 0.032421, Final residual = 6.12673e-06, No Iterations 15
smoothSolver:  Solving for Uy, Initial residual = 0.0495662, Final residual = 7.45832e-06, No Iterations 16
DICPCG:  Solving for p, Initial residual = 0.0422157, Final residual = 0.00204423, No Iterations 98
time step continuity errors : sum local = 3.04008e-07, global = -5.79834e-22, cumulative = -5.31111e-20
DICPCG:  Solving for p, Initial residual = 0.0343862, Final residual = 9.00516e-07, No Iterations 259
time step continuity errors : sum local = 1.16953e-10, global = 8.53264e-21, cumulative = -4.45785e-20
ExecutionTime = 1.51 s  ClockTime = 2 s

Time = 0.004375

Courant Number mean: 0.0469638 max: 0.895423
smoothSolver:  Solving for Ux, Initial residual = 0.0269633, Final residual = 9.2526e-06, No Iterations 14
smoothSolver:  Solving for Uy, Initial residual = 0.0411621, Final residual = 6.24107e-06, No Iterations 16
DICPCG:  Solving for p, Initial residual = 0.0371604, Final residual = 0.00173225, No Iterations 188
time step continuity errors : sum local = 2.2515e-07, global = 1.96695e-20, cumulative = -2.4909e-20
DICPCG:  Solving for p, Initial residual = 0.0298237, Final residual = 8.95282e-07, No Iterations 257
time step continuity errors : sum local = 1.17644e-10, global = 6.90727e-20, cumulative = 4.41637e-20
ExecutionTime = 1.73 s  ClockTime = 2 s

Time = 0.005

Courant Number mean: 0.0504399 max: 0.903699
smoothSolver:  Solving for Ux, Initial residual = 0.0232989, Final residual = 8.25975e-06, No Iterations 14
smoothSolver:  Solving for Uy, Initial residual = 0.0345925, Final residual = 9.14868e-06, No Iterations 15
DICPCG:  Solving for p, Initial residual = 0.0297503, Final residual = 0.00135125, No Iterations 95
time step continuity errors : sum local = 2.07898e-07, global = 9.21365e-21, cumulative = 5.33773e-20
DICPCG:  Solving for p, Initial residual = 0.0242354, Final residual = 9.56959e-07, No Iterations 256
time step continuity errors : sum local = 1.25276e-10, global = 5.98835e-21, cumulative = 5.93657e-20
ExecutionTime = 1.91 s  ClockTime = 2 s

Time = 0.005625

Courant Number mean: 0.05361 max: 0.910167
smoothSolver:  Solving for Ux, Initial residual = 0.0203603, Final residual = 7.3802e-06, No Iterations 14
smoothSolver:  Solving for Uy, Initial residual = 0.0303313, Final residual = 8.05777e-06, No Iterations 15
DICPCG:  Solving for p, Initial residual = 0.0272031, Final residual = 0.00126541, No Iterations 188
time step continuity errors : sum local = 1.65841e-07, global = 3.53735e-20, cumulative = 9.47391e-20
DICPCG:  Solving for p, Initial residual = 0.0220116, Final residual = 9.48593e-07, No Iterations 254
time step continuity errors : sum local = 1.25452e-10, global = 1.50193e-20, cumulative = 1.09758e-19
ExecutionTime = 2.14 s  ClockTime = 2 s

Time = 0.00625

Courant Number mean: 0.0565189 max: 0.915402
smoothSolver:  Solving for Ux, Initial residual = 0.0182354, Final residual = 6.76092e-06, No Iterations 14
smoothSolver:  Solving for Uy, Initial residual = 0.0265402, Final residual = 7.08826e-06, No Iterations 15
DICPCG:  Solving for p, Initial residual = 0.0228487, Final residual = 0.00107829, No Iterations 94
time step continuity errors : sum local = 1.64184e-07, global = -2.05742e-20, cumulative = 8.91842e-20
DICPCG:  Solving for p, Initial residual = 0.0187037, Final residual = 9.61714e-07, No Iterations 253
time step continuity errors : sum local = 1.26801e-10, global = 3.44109e-20, cumulative = 1.23595e-19
ExecutionTime = 2.32 s  ClockTime = 3 s

Time = 0.006875

Courant Number mean: 0.0592241 max: 0.919752
smoothSolver:  Solving for Ux, Initial residual = 0.0163918, Final residual = 6.1734e-06, No Iterations 14
smoothSolver:  Solving for Uy, Initial residual = 0.0239498, Final residual = 6.41571e-06, No Iterations 15
DICPCG:  Solving for p, Initial residual = 0.0214138, Final residual = 0.00101076, No Iterations 188
time step continuity errors : sum local = 1.33404e-07, global = -5.2843e-21, cumulative = 1.18311e-19
DICPCG:  Solving for p, Initial residual = 0.0175161, Final residual = 9.87316e-07, No Iterations 251
time step continuity errors : sum local = 1.31158e-10, global = 3.25518e-21, cumulative = 1.21566e-19
ExecutionTime = 2.54 s  ClockTime = 3 s

Time = 0.0075

Courant Number mean: 0.0617517 max: 0.923442
smoothSolver:  Solving for Ux, Initial residual = 0.0149874, Final residual = 5.74026e-06, No Iterations 14
smoothSolver:  Solving for Uy, Initial residual = 0.0215049, Final residual = 5.78338e-06, No Iterations 15
DICPCG:  Solving for p, Initial residual = 0.0186013, Final residual = 0.000906724, No Iterations 93
time step continuity errors : sum local = 1.36268e-07, global = 6.77327e-20, cumulative = 1.89299e-19
DICPCG:  Solving for p, Initial residual = 0.0153489, Final residual = 9.77646e-07, No Iterations 248
time step continuity errors : sum local = 1.29748e-10, global = 6.57045e-20, cumulative = 2.55003e-19
ExecutionTime = 2.72 s  ClockTime = 3 s

Time = 0.008125

Courant Number mean: 0.0641222 max: 0.926623
smoothSolver:  Solving for Ux, Initial residual = 0.0137218, Final residual = 9.28749e-06, No Iterations 13
smoothSolver:  Solving for Uy, Initial residual = 0.0197615, Final residual = 9.21073e-06, No Iterations 14
DICPCG:  Solving for p, Initial residual = 0.0177907, Final residual = 0.000816522, No Iterations 188
time step continuity errors : sum local = 1.08389e-07, global = 1.91748e-20, cumulative = 2.74178e-19
DICPCG:  Solving for p, Initial residual = 0.014638, Final residual = 8.76847e-07, No Iterations 247
time step continuity errors : sum local = 1.16959e-10, global = -4.10516e-20, cumulative = 2.33126e-19
ExecutionTime = 2.93 s  ClockTime = 3 s

Time = 0.00875

Courant Number mean: 0.0663686 max: 0.929402
smoothSolver:  Solving for Ux, Initial residual = 0.0127219, Final residual = 8.71763e-06, No Iterations 13
smoothSolver:  Solving for Uy, Initial residual = 0.0180595, Final residual = 8.44145e-06, No Iterations 14
DICPCG:  Solving for p, Initial residual = 0.0156558, Final residual = 0.000740788, No Iterations 93
time step continuity errors : sum local = 1.10835e-07, global = -1.1909e-20, cumulative = 2.21217e-19
DICPCG:  Solving for p, Initial residual = 0.0129316, Final residual = 9.99993e-07, No Iterations 245
time step continuity errors : sum local = 1.33179e-10, global = -8.90603e-21, cumulative = 2.12311e-19
ExecutionTime = 3.11 s  ClockTime = 3 s

Time = 0.009375

Courant Number mean: 0.0684955 max: 0.931857
smoothSolver:  Solving for Ux, Initial residual = 0.0117962, Final residual = 8.15474e-06, No Iterations 13
smoothSolver:  Solving for Uy, Initial residual = 0.0168058, Final residual = 7.86678e-06, No Iterations 14
DICPCG:  Solving for p, Initial residual = 0.0151239, Final residual = 0.000751931, No Iterations 187
time step continuity errors : sum local = 1.00249e-07, global = -6.1509e-20, cumulative = 1.50802e-19
DICPCG:  Solving for p, Initial residual = 0.0125425, Final residual = 8.34732e-07, No Iterations 246
time step continuity errors : sum local = 1.11552e-10, global = 8.68113e-21, cumulative = 1.59484e-19
ExecutionTime = 3.32 s  ClockTime = 4 s

Time = 0.01

Courant Number mean: 0.0705162 max: 0.934046
smoothSolver:  Solving for Ux, Initial residual = 0.0110469, Final residual = 7.71159e-06, No Iterations 13
smoothSolver:  Solving for Uy, Initial residual = 0.0155547, Final residual = 7.29728e-06, No Iterations 14
DICPCG:  Solving for p, Initial residual = 0.013657, Final residual = 0.00062016, No Iterations 93
time step continuity errors : sum local = 9.25356e-08, global = 1.33301e-20, cumulative = 1.72814e-19
DICPCG:  Solving for p, Initial residual = 0.0113063, Final residual = 9.60411e-07, No Iterations 235
time step continuity errors : sum local = 1.28201e-10, global = -1.51829e-21, cumulative = 1.71295e-19
ExecutionTime = 3.5 s  ClockTime = 4 s

Time = 0.010625

Courant Number mean: 0.0724521 max: 0.936014
smoothSolver:  Solving for Ux, Initial residual = 0.0103399, Final residual = 7.26935e-06, No Iterations 13
smoothSolver:  Solving for Uy, Initial residual = 0.0146102, Final residual = 6.86161e-06, No Iterations 14
DICPCG:  Solving for p, Initial residual = 0.0131633, Final residual = 0.000630773, No Iterations 187
time step continuity errors : sum local = 8.43894e-08, global = -4.15266e-20, cumulative = 1.29769e-19
DICPCG:  Solving for p, Initial residual = 0.010939, Final residual = 8.95466e-07, No Iterations 245
time step continuity errors : sum local = 1.19876e-10, global = -8.75029e-20, cumulative = 4.22659e-20
ExecutionTime = 3.72 s  ClockTime = 4 s

Time = 0.01125

Courant Number mean: 0.0743032 max: 0.937797
smoothSolver:  Solving for Ux, Initial residual = 0.00975641, Final residual = 6.91407e-06, No Iterations 13
smoothSolver:  Solving for Uy, Initial residual = 0.0136522, Final residual = 6.42305e-06, No Iterations 14
DICPCG:  Solving for p, Initial residual = 0.0120259, Final residual = 0.000536898, No Iterations 93
time step continuity errors : sum local = 7.99081e-08, global = 1.31657e-20, cumulative = 5.54316e-20
DICPCG:  Solving for p, Initial residual = 0.00998898, Final residual = 9.82251e-07, No Iterations 232
time step continuity errors : sum local = 1.3153e-10, global = -2.2485e-20, cumulative = 3.29466e-20
ExecutionTime = 3.89 s  ClockTime = 4 s

Time = 0.011875

Courant Number mean: 0.0760736 max: 0.93942
smoothSolver:  Solving for Ux, Initial residual = 0.00919764, Final residual = 6.55571e-06, No Iterations 13
smoothSolver:  Solving for Uy, Initial residual = 0.0129161, Final residual = 6.08171e-06, No Iterations 14
DICPCG:  Solving for p, Initial residual = 0.011666, Final residual = 0.000568036, No Iterations 186
time step continuity errors : sum local = 7.62199e-08, global = 2.01577e-20, cumulative = 5.31043e-20
DICPCG:  Solving for p, Initial residual = 0.00975646, Final residual = 9.42789e-07, No Iterations 244
time step continuity errors : sum local = 1.26467e-10, global = 3.51512e-20, cumulative = 8.82555e-20
ExecutionTime = 4.11 s  ClockTime = 4 s

Time = 0.0125

Courant Number mean: 0.0777798 max: 0.940907
smoothSolver:  Solving for Ux, Initial residual = 0.00873178, Final residual = 6.26591e-06, No Iterations 13
smoothSolver:  Solving for Uy, Initial residual = 0.0121589, Final residual = 9.90913e-06, No Iterations 13
DICPCG:  Solving for p, Initial residual = 0.0108311, Final residual = 0.000533639, No Iterations 92
time step continuity errors : sum local = 7.84714e-08, global = 5.16291e-20, cumulative = 1.39885e-19
DICPCG:  Solving for p, Initial residual = 0.00906906, Final residual = 9.95097e-07, No Iterations 234
time step continuity errors : sum local = 1.33855e-10, global = -3.94226e-20, cumulative = 1.00462e-19
ExecutionTime = 4.34 s  ClockTime = 5 s

Time = 0.013125

Courant Number mean: 0.0794259 max: 0.942276
smoothSolver:  Solving for Ux, Initial residual = 0.00827803, Final residual = 5.96839e-06, No Iterations 13
smoothSolver:  Solving for Uy, Initial residual = 0.0115703, Final residual = 9.4348e-06, No Iterations 13
DICPCG:  Solving for p, Initial residual = 0.010596, Final residual = 0.000500664, No Iterations 185
time step continuity errors : sum local = 6.73634e-08, global = 3.07145e-20, cumulative = 1.31177e-19
DICPCG:  Solving for p, Initial residual = 0.00887151, Final residual = 8.51867e-07, No Iterations 243
time step continuity errors : sum local = 1.1454e-10, global = 1.07488e-20, cumulative = 1.41925e-19
ExecutionTime = 4.56 s  ClockTime = 5 s

Time = 0.01375

Courant Number mean: 0.0810112 max: 0.943541
smoothSolver:  Solving for Ux, Initial residual = 0.00789726, Final residual = 9.97073e-06, No Iterations 12
smoothSolver:  Solving for Uy, Initial residual = 0.0109562, Final residual = 8.94436e-06, No Iterations 13
DICPCG:  Solving for p, Initial residual = 0.00982163, Final residual = 0.000467827, No Iterations 92
time step continuity errors : sum local = 6.87899e-08, global = 2.90721e-21, cumulative = 1.44833e-19
DICPCG:  Solving for p, Initial residual = 0.00821054, Final residual = 8.58893e-07, No Iterations 243
time step continuity errors : sum local = 1.15628e-10, global = -3.36808e-20, cumulative = 1.11152e-19
ExecutionTime = 4.73 s  ClockTime = 5 s

Time = 0.014375

Courant Number mean: 0.0825392 max: 0.944715
smoothSolver:  Solving for Ux, Initial residual = 0.00752092, Final residual = 9.53314e-06, No Iterations 12
smoothSolver:  Solving for Uy, Initial residual = 0.0104745, Final residual = 8.55477e-06, No Iterations 13
DICPCG:  Solving for p, Initial residual = 0.00961847, Final residual = 0.00048051, No Iterations 95
time step continuity errors : sum local = 7.68183e-08, global = -4.55208e-20, cumulative = 6.5631e-20
DICPCG:  Solving for p, Initial residual = 0.00792133, Final residual = 9.31569e-07, No Iterations 232
time step continuity errors : sum local = 1.25329e-10, global = 1.19705e-19, cumulative = 1.85336e-19
ExecutionTime = 4.91 s  ClockTime = 5 s

Time = 0.015

Courant Number mean: 0.0840213 max: 0.945808
smoothSolver:  Solving for Ux, Initial residual = 0.00724285, Final residual = 9.2234e-06, No Iterations 12
smoothSolver:  Solving for Uy, Initial residual = 0.00992629, Final residual = 8.10527e-06, No Iterations 13
DICPCG:  Solving for p, Initial residual = 0.00946585, Final residual = 0.00046055, No Iterations 188
time step continuity errors : sum local = 6.21571e-08, global = 3.08871e-20, cumulative = 2.16223e-19
DICPCG:  Solving for p, Initial residual = 0.00796869, Final residual = 9.18603e-07, No Iterations 243
time step continuity errors : sum local = 1.2372e-10, global = 4.51515e-20, cumulative = 2.61375e-19
ExecutionTime = 5.12 s  ClockTime = 5 s

Time = 0.015625

Courant Number mean: 0.0854587 max: 0.946831
smoothSolver:  Solving for Ux, Initial residual = 0.00689826, Final residual = 8.81609e-06, No Iterations 12
smoothSolver:  Solving for Uy, Initial residual = 0.00953945, Final residual = 7.80368e-06, No Iterations 13
DICPCG:  Solving for p, Initial residual = 0.00861941, Final residual = 0.000387823, No Iterations 92
time step continuity errors : sum local = 5.3548e-08, global = 2.54135e-20, cumulative = 2.86788e-19
DICPCG:  Solving for p, Initial residual = 0.0072532, Final residual = 9.59276e-07, No Iterations 243
time step continuity errors : sum local = 1.29459e-10, global = 1.13225e-19, cumulative = 4.00013e-19
ExecutionTime = 5.29 s  ClockTime = 6 s

Time = 0.01625

Courant Number mean: 0.0868519 max: 0.947788
smoothSolver:  Solving for Ux, Initial residual = 0.00661384, Final residual = 8.48298e-06, No Iterations 12
smoothSolver:  Solving for Uy, Initial residual = 0.00914645, Final residual = 7.48709e-06, No Iterations 13
DICPCG:  Solving for p, Initial residual = 0.00827633, Final residual = 0.000362119, No Iterations 92
time step continuity errors : sum local = 4.92787e-08, global = 1.27251e-20, cumulative = 4.12738e-19
DICPCG:  Solving for p, Initial residual = 0.007147, Final residual = 9.87037e-07, No Iterations 177
time step continuity errors : sum local = 1.34745e-10, global = 1.0333e-19, cumulative = 5.16069e-19
ExecutionTime = 5.44 s  ClockTime = 6 s

Time = 0.016875

Courant Number mean: 0.0882025 max: 0.948687
smoothSolver:  Solving for Ux, Initial residual = 0.00635626, Final residual = 8.17955e-06, No Iterations 12
smoothSolver:  Solving for Uy, Initial residual = 0.00877669, Final residual = 7.18794e-06, No Iterations 13
DICPCG:  Solving for p, Initial residual = 0.00783364, Final residual = 0.000354726, No Iterations 92
time step continuity errors : sum local = 5.07948e-08, global = 9.46857e-21, cumulative = 5.25537e-19
DICPCG:  Solving for p, Initial residual = 0.00680088, Final residual = 8.62647e-07, No Iterations 243
time step continuity errors : sum local = 1.16601e-10, global = 6.47817e-20, cumulative = 5.90319e-19
ExecutionTime = 5.61 s  ClockTime = 6 s

Time = 0.0175

Courant Number mean: 0.0895136 max: 0.949535
smoothSolver:  Solving for Ux, Initial residual = 0.00611079, Final residual = 7.88672e-06, No Iterations 12
smoothSolver:  Solving for Uy, Initial residual = 0.00845348, Final residual = 6.92518e-06, No Iterations 13
DICPCG:  Solving for p, Initial residual = 0.0077081, Final residual = 0.000364202, No Iterations 92
time step continuity errors : sum local = 5.40002e-08, global = 1.86882e-20, cumulative = 6.09007e-19
DICPCG:  Solving for p, Initial residual = 0.00664146, Final residual = 9.75485e-07, No Iterations 237
time step continuity errors : sum local = 1.32306e-10, global = -6.42434e-20, cumulative = 5.44764e-19
ExecutionTime = 5.78 s  ClockTime = 6 s

Time = 0.018125

Courant Number mean: 0.0907935 max: 0.950335
smoothSolver:  Solving for Ux, Initial residual = 0.00590707, Final residual = 7.64921e-06, No Iterations 12
smoothSolver:  Solving for Uy, Initial residual = 0.00811018, Final residual = 6.64384e-06, No Iterations 13
DICPCG:  Solving for p, Initial residual = 0.00751812, Final residual = 0.000373406, No Iterations 183
time step continuity errors : sum local = 5.05424e-08, global = -4.10631e-20, cumulative = 5.03701e-19
DICPCG:  Solving for p, Initial residual = 0.00638848, Final residual = 9.69911e-07, No Iterations 243
time step continuity errors : sum local = 1.31004e-10, global = -2.5419e-20, cumulative = 4.78282e-19
ExecutionTime = 5.99 s  ClockTime = 6 s

Time = 0.01875

Courant Number mean: 0.0920398 max: 0.951092
smoothSolver:  Solving for Ux, Initial residual = 0.00568605, Final residual = 7.38239e-06, No Iterations 12
smoothSolver:  Solving for Uy, Initial residual = 0.00783498, Final residual = 6.4246e-06, No Iterations 13
DICPCG:  Solving for p, Initial residual = 0.00720652, Final residual = 0.000307812, No Iterations 92
time step continuity errors : sum local = 4.33664e-08, global = -7.41138e-21, cumulative = 4.7087e-19
DICPCG:  Solving for p, Initial residual = 0.00607067, Final residual = 8.25035e-07, No Iterations 234
time step continuity errors : sum local = 1.12032e-10, global = -2.02458e-20, cumulative = 4.50625e-19
ExecutionTime = 6.16 s  ClockTime = 6 s

Time = 0.019375

Courant Number mean: 0.093253 max: 0.951809
smoothSolver:  Solving for Ux, Initial residual = 0.00548522, Final residual = 7.13888e-06, No Iterations 12
smoothSolver:  Solving for Uy, Initial residual = 0.00757288, Final residual = 6.21178e-06, No Iterations 13
DICPCG:  Solving for p, Initial residual = 0.00698809, Final residual = 0.000306991, No Iterations 92
time step continuity errors : sum local = 4.35416e-08, global = 6.67088e-21, cumulative = 4.57295e-19
DICPCG:  Solving for p, Initial residual = 0.00602811, Final residual = 9.95367e-07, No Iterations 237
time step continuity errors : sum local = 1.35345e-10, global = 2.27206e-21, cumulative = 4.59567e-19
ExecutionTime = 6.33 s  ClockTime = 7 s

Time = 0.02

Courant Number mean: 0.0944344 max: 0.952491
smoothSolver:  Solving for Ux, Initial residual = 0.00531078, Final residual = 6.93108e-06, No Iterations 12
smoothSolver:  Solving for Uy, Initial residual = 0.0073052, Final residual = 5.9927e-06, No Iterations 13
DICPCG:  Solving for p, Initial residual = 0.00669891, Final residual = 0.00029776, No Iterations 181
time step continuity errors : sum local = 4.03369e-08, global = -8.27816e-20, cumulative = 3.76786e-19
DICPCG:  Solving for p, Initial residual = 0.00566821, Final residual = 8.75477e-07, No Iterations 243
time step continuity errors : sum local = 1.18561e-10, global = -2.44601e-20, cumulative = 3.52326e-19
ExecutionTime = 6.54 s  ClockTime = 7 s

Time = 0.020625

Courant Number mean: 0.0955855 max: 0.95314
smoothSolver:  Solving for Ux, Initial residual = 0.00513635, Final residual = 6.71873e-06, No Iterations 12
smoothSolver:  Solving for Uy, Initial residual = 0.00707461, Final residual = 5.80701e-06, No Iterations 13
DICPCG:  Solving for p, Initial residual = 0.00647345, Final residual = 0.00032313, No Iterations 91
time step continuity errors : sum local = 4.57778e-08, global = -2.1995e-21, cumulative = 3.50126e-19
DICPCG:  Solving for p, Initial residual = 0.00549249, Final residual = 8.68357e-07, No Iterations 233
time step continuity errors : sum local = 1.17673e-10, global = -1.07363e-19, cumulative = 2.42764e-19
ExecutionTime = 6.71 s  ClockTime = 7 s

Time = 0.02125

Courant Number mean: 0.0967134 max: 0.953758
smoothSolver:  Solving for Ux, Initial residual = 0.00496894, Final residual = 6.51221e-06, No Iterations 12
smoothSolver:  Solving for Uy, Initial residual = 0.00686282, Final residual = 9.73202e-06, No Iterations 12
DICPCG:  Solving for p, Initial residual = 0.00647622, Final residual = 0.000289502, No Iterations 92
time step continuity errors : sum local = 4.23847e-08, global = 3.28718e-20, cumulative = 2.75635e-19
DICPCG:  Solving for p, Initial residual = 0.00553765, Final residual = 9.54918e-07, No Iterations 232
time step continuity errors : sum local = 1.29587e-10, global = -8.714e-21, cumulative = 2.66921e-19
ExecutionTime = 6.88 s  ClockTime = 7 s

Time = 0.021875

Courant Number mean: 0.097816 max: 0.954348
smoothSolver:  Solving for Ux, Initial residual = 0.00482874, Final residual = 6.34391e-06, No Iterations 12
smoothSolver:  Solving for Uy, Initial residual = 0.0066355, Final residual = 9.40843e-06, No Iterations 12
DICPCG:  Solving for p, Initial residual = 0.00622215, Final residual = 0.000306383, No Iterations 179
time step continuity errors : sum local = 4.15677e-08, global = 6.9974e-21, cumulative = 2.73919e-19
DICPCG:  Solving for p, Initial residual = 0.00526713, Final residual = 9.2139e-07, No Iterations 242
time step continuity errors : sum local = 1.25007e-10, global = -2.79393e-20, cumulative = 2.4598e-19
ExecutionTime = 7.09 s  ClockTime = 7 s

Time = 0.0225

Courant Number mean: 0.0988934 max: 0.954912
smoothSolver:  Solving for Ux, Initial residual = 0.004679, Final residual = 6.15925e-06, No Iterations 12
smoothSolver:  Solving for Uy, Initial residual = 0.00644785, Final residual = 9.14846e-06, No Iterations 12
DICPCG:  Solving for p, Initial residual = 0.00597945, Final residual = 0.000268112, No Iterations 92
time step continuity errors : sum local = 3.79964e-08, global = -5.42524e-20, cumulative = 1.91727e-19
DICPCG:  Solving for p, Initial residual = 0.00504039, Final residual = 9.83677e-07, No Iterations 241
time step continuity errors : sum local = 1.33561e-10, global = 5.22308e-20, cumulative = 2.43958e-19
ExecutionTime = 7.27 s  ClockTime = 8 s

Time = 0.023125

Courant Number mean: 0.0999462 max: 0.955452
smoothSolver:  Solving for Ux, Initial residual = 0.004538, Final residual = 5.98376e-06, No Iterations 12
smoothSolver:  Solving for Uy, Initial residual = 0.00627025, Final residual = 8.8978e-06, No Iterations 12
DICPCG:  Solving for p, Initial residual = 0.00591095, Final residual = 0.000264346, No Iterations 92
time step continuity errors : sum local = 3.83379e-08, global = -2.51475e-20, cumulative = 2.1881e-19
DICPCG:  Solving for p, Initial residual = 0.00510205, Final residual = 8.82043e-07, No Iterations 234
time step continuity errors : sum local = 1.19892e-10, global = -5.41395e-20, cumulative = 1.64671e-19
ExecutionTime = 7.44 s  ClockTime = 8 s

Time = 0.02375

Courant Number mean: 0.100975 max: 0.955969
smoothSolver:  Solving for Ux, Initial residual = 0.00441836, Final residual = 5.83807e-06, No Iterations 12
smoothSolver:  Solving for Uy, Initial residual = 0.00608128, Final residual = 8.62831e-06, No Iterations 12
DICPCG:  Solving for p, Initial residual = 0.00571437, Final residual = 0.000247562, No Iterations 179
time step continuity errors : sum local = 3.36241e-08, global = 7.90346e-20, cumulative = 2.43705e-19
DICPCG:  Solving for p, Initial residual = 0.00482535, Final residual = 8.67876e-07, No Iterations 241
time step continuity errors : sum local = 1.18009e-10, global = -1.11116e-19, cumulative = 1.32589e-19
ExecutionTime = 7.65 s  ClockTime = 8 s

Time = 0.024375

Courant Number mean: 0.101982 max: 0.956466
smoothSolver:  Solving for Ux, Initial residual = 0.00429212, Final residual = 9.86224e-06, No Iterations 11
smoothSolver:  Solving for Uy, Initial residual = 0.00592257, Final residual = 8.40767e-06, No Iterations 12
DICPCG:  Solving for p, Initial residual = 0.00545113, Final residual = 0.000254283, No Iterations 92
time step continuity errors : sum local = 3.60714e-08, global = -3.28529e-20, cumulative = 9.97365e-20
DICPCG:  Solving for p, Initial residual = 0.00460887, Final residual = 8.85821e-07, No Iterations 234
time step continuity errors : sum local = 1.20641e-10, global = -4.50933e-20, cumulative = 5.46432e-20
ExecutionTime = 7.82 s  ClockTime = 8 s

Time = 0.025

Courant Number mean: 0.102971 max: 0.956943
smoothSolver:  Solving for Ux, Initial residual = 0.00417211, Final residual = 9.59963e-06, No Iterations 11
smoothSolver:  Solving for Uy, Initial residual = 0.00577192, Final residual = 8.19467e-06, No Iterations 12
DICPCG:  Solving for p, Initial residual = 0.00549988, Final residual = 0.000249239, No Iterations 92
time step continuity errors : sum local = 3.64151e-08, global = 2.12742e-20, cumulative = 7.59174e-20
DICPCG:  Solving for p, Initial residual = 0.00474912, Final residual = 8.72363e-07, No Iterations 234
time step continuity errors : sum local = 1.18793e-10, global = 1.55548e-20, cumulative = 9.14722e-20
ExecutionTime = 8.05 s  ClockTime = 8 s

Time = 0.025625

Courant Number mean: 0.10394 max: 0.957401
smoothSolver:  Solving for Ux, Initial residual = 0.00407103, Final residual = 9.38319e-06, No Iterations 11
smoothSolver:  Solving for Uy, Initial residual = 0.00561009, Final residual = 7.96298e-06, No Iterations 12
DICPCG:  Solving for p, Initial residual = 0.00533455, Final residual = 0.000256224, No Iterations 178
time step continuity errors : sum local = 3.48668e-08, global = 6.06913e-21, cumulative = 9.75413e-20
DICPCG:  Solving for p, Initial residual = 0.00451272, Final residual = 9.41479e-07, No Iterations 240
time step continuity errors : sum local = 1.28197e-10, global = 5.11657e-21, cumulative = 1.02658e-19
ExecutionTime = 8.27 s  ClockTime = 9 s

Time = 0.02625

Courant Number mean: 0.104891 max: 0.957843
smoothSolver:  Solving for Ux, Initial residual = 0.00396129, Final residual = 9.14305e-06, No Iterations 11
smoothSolver:  Solving for Uy, Initial residual = 0.00547575, Final residual = 7.77644e-06, No Iterations 12
DICPCG:  Solving for p, Initial residual = 0.00510968, Final residual = 0.000239971, No Iterations 92
time step continuity errors : sum local = 3.39181e-08, global = 2.98604e-20, cumulative = 1.32518e-19
DICPCG:  Solving for p, Initial residual = 0.00431871, Final residual = 9.16463e-07, No Iterations 240
time step continuity errors : sum local = 1.24783e-10, global = 3.32367e-20, cumulative = 1.65755e-19
ExecutionTime = 8.44 s  ClockTime = 9 s

Time = 0.026875

Courant Number mean: 0.105823 max: 0.958268
smoothSolver:  Solving for Ux, Initial residual = 0.00385774, Final residual = 8.91443e-06, No Iterations 11
smoothSolver:  Solving for Uy, Initial residual = 0.00534571, Final residual = 7.59249e-06, No Iterations 12
DICPCG:  Solving for p, Initial residual = 0.00514082, Final residual = 0.000230402, No Iterations 92
time step continuity errors : sum local = 3.34015e-08, global = 5.88002e-20, cumulative = 2.24555e-19
DICPCG:  Solving for p, Initial residual = 0.00444168, Final residual = 9.62435e-07, No Iterations 237
time step continuity errors : sum local = 1.31108e-10, global = 4.09259e-20, cumulative = 2.65481e-19
ExecutionTime = 8.61 s  ClockTime = 9 s

Time = 0.0275

Courant Number mean: 0.106736 max: 0.958679
smoothSolver:  Solving for Ux, Initial residual = 0.00376957, Final residual = 8.72396e-06, No Iterations 11
smoothSolver:  Solving for Uy, Initial residual = 0.00520745, Final residual = 7.39445e-06, No Iterations 12
DICPCG:  Solving for p, Initial residual = 0.00498371, Final residual = 0.000230768, No Iterations 178
time step continuity errors : sum local = 3.14274e-08, global = 4.03564e-20, cumulative = 3.05838e-19
DICPCG:  Solving for p, Initial residual = 0.00420646, Final residual = 9.26798e-07, No Iterations 231
time step continuity errors : sum local = 1.26431e-10, global = 8.91596e-21, cumulative = 3.14753e-19
ExecutionTime = 8.81 s  ClockTime = 9 s

Time = 0.028125

Courant Number mean: 0.107631 max: 0.959075
smoothSolver:  Solving for Ux, Initial residual = 0.00367498, Final residual = 8.51556e-06, No Iterations 11
smoothSolver:  Solving for Uy, Initial residual = 0.00509105, Final residual = 7.23227e-06, No Iterations 12
DICPCG:  Solving for p, Initial residual = 0.00475807, Final residual = 0.000225913, No Iterations 92
time step continuity errors : sum local = 3.20108e-08, global = 2.76987e-22, cumulative = 3.1503e-19
DICPCG:  Solving for p, Initial residual = 0.0040313, Final residual = 9.36448e-07, No Iterations 239
time step continuity errors : sum local = 1.27643e-10, global = -1.19182e-21, cumulative = 3.13839e-19
ExecutionTime = 8.98 s  ClockTime = 9 s

Time = 0.02875

Courant Number mean: 0.108511 max: 0.959457
smoothSolver:  Solving for Ux, Initial residual = 0.00358464, Final residual = 8.31522e-06, No Iterations 11
smoothSolver:  Solving for Uy, Initial residual = 0.00497836, Final residual = 7.07273e-06, No Iterations 12
DICPCG:  Solving for p, Initial residual = 0.00483925, Final residual = 0.000219327, No Iterations 92
time step continuity errors : sum local = 3.20381e-08, global = 2.11608e-21, cumulative = 3.15955e-19
DICPCG:  Solving for p, Initial residual = 0.00418302, Final residual = 9.18572e-07, No Iterations 239
time step continuity errors : sum local = 1.25222e-10, global = -1.64321e-21, cumulative = 3.14312e-19
ExecutionTime = 9.15 s  ClockTime = 9 s

Time = 0.029375

Courant Number mean: 0.109378 max: 0.959828
smoothSolver:  Solving for Ux, Initial residual = 0.00350855, Final residual = 8.14944e-06, No Iterations 11
smoothSolver:  Solving for Uy, Initial residual = 0.00485699, Final residual = 6.89835e-06, No Iterations 12
DICPCG:  Solving for p, Initial residual = 0.00470421, Final residual = 0.00022196, No Iterations 178
time step continuity errors : sum local = 3.02657e-08, global = -1.03672e-19, cumulative = 2.1064e-19
DICPCG:  Solving for p, Initial residual = 0.00397085, Final residual = 9.8949e-07, No Iterations 228
time step continuity errors : sum local = 1.34888e-10, global = 8.18554e-20, cumulative = 2.92495e-19
ExecutionTime = 9.35 s  ClockTime = 10 s

Time = 0.03

Courant Number mean: 0.110229 max: 0.960186
smoothSolver:  Solving for Ux, Initial residual = 0.00342479, Final residual = 7.96344e-06, No Iterations 11
smoothSolver:  Solving for Uy, Initial residual = 0.00475637, Final residual = 6.7583e-06, No Iterations 12
DICPCG:  Solving for p, Initial residual = 0.00447924, Final residual = 0.000211364, No Iterations 92
time step continuity errors : sum local = 2.98882e-08, global = -6.02019e-20, cumulative = 2.32293e-19
DICPCG:  Solving for p, Initial residual = 0.00379934, Final residual = 8.94405e-07, No Iterations 239
time step continuity errors : sum local = 1.21998e-10, global = 7.04365e-20, cumulative = 3.0273e-19
ExecutionTime = 9.53 s  ClockTime = 10 s

Time = 0.030625

Courant Number mean: 0.111066 max: 0.960533
smoothSolver:  Solving for Ux, Initial residual = 0.00334562, Final residual = 7.78688e-06, No Iterations 11
smoothSolver:  Solving for Uy, Initial residual = 0.00465709, Final residual = 6.61774e-06, No Iterations 12
DICPCG:  Solving for p, Initial residual = 0.00456682, Final residual = 0.000205643, No Iterations 92
time step continuity errors : sum local = 2.98679e-08, global = -6.23898e-20, cumulative = 2.4034e-19
DICPCG:  Solving for p, Initial residual = 0.00395071, Final residual = 9.89087e-07, No Iterations 238
time step continuity errors : sum local = 1.3499e-10, global = -4.03613e-20, cumulative = 1.99979e-19
ExecutionTime = 9.7 s  ClockTime = 10 s

Time = 0.03125

Courant Number mean: 0.111888 max: 0.960869
smoothSolver:  Solving for Ux, Initial residual = 0.0032778, Final residual = 7.63889e-06, No Iterations 11
smoothSolver:  Solving for Uy, Initial residual = 0.00455115, Final residual = 6.46546e-06, No Iterations 12
DICPCG:  Solving for p, Initial residual = 0.00443986, Final residual = 0.000203331, No Iterations 179
time step continuity errors : sum local = 2.77497e-08, global = -3.85197e-20, cumulative = 1.61459e-19
DICPCG:  Solving for p, Initial residual = 0.00374073, Final residual = 8.77947e-07, No Iterations 228
time step continuity errors : sum local = 1.20125e-10, global = 5.23625e-20, cumulative = 2.13821e-19
ExecutionTime = 9.9 s  ClockTime = 10 s

Time = 0.031875

Courant Number mean: 0.112696 max: 0.961195
smoothSolver:  Solving for Ux, Initial residual = 0.00320406, Final residual = 7.47386e-06, No Iterations 11
smoothSolver:  Solving for Uy, Initial residual = 0.0044623, Final residual = 6.34147e-06, No Iterations 12
DICPCG:  Solving for p, Initial residual = 0.00421284, Final residual = 0.000199159, No Iterations 92
time step continuity errors : sum local = 2.82012e-08, global = -4.46442e-20, cumulative = 1.69177e-19
DICPCG:  Solving for p, Initial residual = 0.00357231, Final residual = 9.44075e-07, No Iterations 238
time step continuity errors : sum local = 1.28873e-10, global = -2.5258e-20, cumulative = 1.43919e-19
ExecutionTime = 10.07 s  ClockTime = 10 s

Time = 0.0325

Courant Number mean: 0.11349 max: 0.961512
smoothSolver:  Solving for Ux, Initial residual = 0.00313418, Final residual = 7.31673e-06, No Iterations 11
smoothSolver:  Solving for Uy, Initial residual = 0.00437472, Final residual = 6.21735e-06, No Iterations 12
DICPCG:  Solving for p, Initial residual = 0.00433122, Final residual = 0.000197397, No Iterations 92
time step continuity errors : sum local = 2.87669e-08, global = 6.42796e-20, cumulative = 2.08199e-19
DICPCG:  Solving for p, Initial residual = 0.00375095, Final residual = 9.41515e-07, No Iterations 238
time step continuity errors : sum local = 1.28661e-10, global = -5.28479e-20, cumulative = 1.55351e-19
ExecutionTime = 10.24 s  ClockTime = 11 s

Time = 0.033125

Courant Number mean: 0.114272 max: 0.961819
smoothSolver:  Solving for Ux, Initial residual = 0.00307464, Final residual = 7.18602e-06, No Iterations 11
smoothSolver:  Solving for Uy, Initial residual = 0.00428044, Final residual = 6.08161e-06, No Iterations 12
DICPCG:  Solving for p, Initial residual = 0.0042197, Final residual = 0.000198166, No Iterations 180
time step continuity errors : sum local = 2.70693e-08, global = 2.21097e-20, cumulative = 1.7746e-19
DICPCG:  Solving for p, Initial residual = 0.00355876, Final residual = 9.91042e-07, No Iterations 228
time step continuity errors : sum local = 1.35881e-10, global = -1.25387e-20, cumulative = 1.64922e-19
ExecutionTime = 10.44 s  ClockTime = 11 s

Time = 0.03375

Courant Number mean: 0.115042 max: 0.962117
smoothSolver:  Solving for Ux, Initial residual = 0.00300854, Final residual = 7.03794e-06, No Iterations 11
smoothSolver:  Solving for Uy, Initial residual = 0.00420201, Final residual = 5.97216e-06, No Iterations 12
DICPCG:  Solving for p, Initial residual = 0.00401018, Final residual = 0.000188509, No Iterations 92
time step continuity errors : sum local = 2.667e-08, global = 6.64071e-20, cumulative = 2.31329e-19
DICPCG:  Solving for p, Initial residual = 0.00340071, Final residual = 9.9164e-07, No Iterations 237
time step continuity errors : sum local = 1.3548e-10, global = -1.90249e-20, cumulative = 2.12304e-19
ExecutionTime = 10.61 s  ClockTime = 11 s

Time = 0.034375

Courant Number mean: 0.115802 max: 0.962408
smoothSolver:  Solving for Ux, Initial residual = 0.00294612, Final residual = 6.89722e-06, No Iterations 11
smoothSolver:  Solving for Uy, Initial residual = 0.00412389, Final residual = 5.86145e-06, No Iterations 12
DICPCG:  Solving for p, Initial residual = 0.00411449, Final residual = 0.000188407, No Iterations 92
time step continuity errors : sum local = 2.73906e-08, global = 4.56087e-20, cumulative = 2.57912e-19
DICPCG:  Solving for p, Initial residual = 0.00356728, Final residual = 9.80768e-07, No Iterations 237
time step continuity errors : sum local = 1.34164e-10, global = 3.46849e-20, cumulative = 2.92597e-19
ExecutionTime = 10.78 s  ClockTime = 11 s

Time = 0.035

Courant Number mean: 0.11655 max: 0.96269
smoothSolver:  Solving for Ux, Initial residual = 0.00289278, Final residual = 6.77896e-06, No Iterations 11
smoothSolver:  Solving for Uy, Initial residual = 0.00403997, Final residual = 9.91351e-06, No Iterations 11
DICPCG:  Solving for p, Initial residual = 0.00400217, Final residual = 0.000196521, No Iterations 181
time step continuity errors : sum local = 2.68863e-08, global = 1.31948e-20, cumulative = 3.05792e-19
DICPCG:  Solving for p, Initial residual = 0.00337979, Final residual = 9.29453e-07, No Iterations 237
time step continuity errors : sum local = 1.27027e-10, global = -2.81641e-20, cumulative = 2.77628e-19
ExecutionTime = 10.99 s  ClockTime = 11 s

Time = 0.035625

Courant Number mean: 0.117287 max: 0.962965
smoothSolver:  Solving for Ux, Initial residual = 0.0028337, Final residual = 6.64561e-06, No Iterations 11
smoothSolver:  Solving for Uy, Initial residual = 0.00396997, Final residual = 9.74441e-06, No Iterations 11
DICPCG:  Solving for p, Initial residual = 0.00383164, Final residual = 0.000180285, No Iterations 92
time step continuity errors : sum local = 2.55995e-08, global = 1.94396e-20, cumulative = 2.97068e-19
DICPCG:  Solving for p, Initial residual = 0.00325203, Final residual = 9.95064e-07, No Iterations 237
time step continuity errors : sum local = 1.36113e-10, global = -8.35927e-20, cumulative = 2.13475e-19
ExecutionTime = 11.16 s  ClockTime = 11 s

Time = 0.03625

Courant Number mean: 0.118012 max: 0.963232
smoothSolver:  Solving for Ux, Initial residual = 0.00277766, Final residual = 6.51879e-06, No Iterations 11
smoothSolver:  Solving for Uy, Initial residual = 0.0039004, Final residual = 9.5741e-06, No Iterations 11
DICPCG:  Solving for p, Initial residual = 0.00391223, Final residual = 0.000182924, No Iterations 92
time step continuity errors : sum local = 2.68128e-08, global = 1.11332e-20, cumulative = 2.24608e-19
DICPCG:  Solving for p, Initial residual = 0.00339389, Final residual = 9.54569e-07, No Iterations 237
time step continuity errors : sum local = 1.30722e-10, global = -3.2687e-20, cumulative = 1.91921e-19
ExecutionTime = 11.33 s  ClockTime = 12 s

Time = 0.036875

Courant Number mean: 0.118726 max: 0.963492
smoothSolver:  Solving for Ux, Initial residual = 0.00273041, Final residual = 6.41433e-06, No Iterations 11
smoothSolver:  Solving for Uy, Initial residual = 0.00382419, Final residual = 9.38416e-06, No Iterations 11
DICPCG:  Solving for p, Initial residual = 0.00383451, Final residual = 0.000187689, No Iterations 182
time step continuity errors : sum local = 2.56987e-08, global = -1.75278e-19, cumulative = 1.6643e-20
DICPCG:  Solving for p, Initial residual = 0.00324633, Final residual = 9.06227e-07, No Iterations 237
time step continuity errors : sum local = 1.2394e-10, global = 9.93487e-20, cumulative = 1.15992e-19
ExecutionTime = 11.53 s  ClockTime = 12 s

Time = 0.0375

Courant Number mean: 0.11943 max: 0.963746
smoothSolver:  Solving for Ux, Initial residual = 0.00267664, Final residual = 6.29243e-06, No Iterations 11
smoothSolver:  Solving for Uy, Initial residual = 0.00376165, Final residual = 9.23334e-06, No Iterations 11
DICPCG:  Solving for p, Initial residual = 0.00367179, Final residual = 0.000170342, No Iterations 92
time step continuity errors : sum local = 2.41616e-08, global = 1.611e-20, cumulative = 1.32102e-19
DICPCG:  Solving for p, Initial residual = 0.00312147, Final residual = 9.56099e-07, No Iterations 237
time step continuity errors : sum local = 1.30906e-10, global = 7.52841e-20, cumulative = 2.07386e-19
ExecutionTime = 11.77 s  ClockTime = 12 s

Time = 0.038125

Courant Number mean: 0.120122 max: 0.963994
smoothSolver:  Solving for Ux, Initial residual = 0.00262616, Final residual = 6.17727e-06, No Iterations 11
smoothSolver:  Solving for Uy, Initial residual = 0.0036989, Final residual = 9.07969e-06, No Iterations 11
DICPCG:  Solving for p, Initial residual = 0.00373466, Final residual = 0.000173502, No Iterations 92
time step continuity errors : sum local = 2.53559e-08, global = -5.44949e-21, cumulative = 2.01936e-19
DICPCG:  Solving for p, Initial residual = 0.00324309, Final residual = 9.08226e-07, No Iterations 237
time step continuity errors : sum local = 1.24481e-10, global = -9.11086e-21, cumulative = 1.92825e-19
ExecutionTime = 11.94 s  ClockTime = 12 s

Time = 0.03875

Courant Number mean: 0.120807 max: 0.964235
smoothSolver:  Solving for Ux, Initial residual = 0.00258342, Final residual = 6.08212e-06, No Iterations 11
smoothSolver:  Solving for Uy, Initial residual = 0.00363033, Final residual = 8.90879e-06, No Iterations 11
DICPCG:  Solving for p, Initial residual = 0.00366362, Final residual = 0.000170766, No Iterations 184
time step continuity errors : sum local = 2.33971e-08, global = 5.4582e-20, cumulative = 2.47407e-19
DICPCG:  Solving for p, Initial residual = 0.00309998, Final residual = 8.99574e-07, No Iterations 237
time step continuity errors : sum local = 1.2312e-10, global = 7.876e-21, cumulative = 2.55283e-19
ExecutionTime = 12.14 s  ClockTime = 12 s

Time = 0.039375

Courant Number mean: 0.121483 max: 0.964471
smoothSolver:  Solving for Ux, Initial residual = 0.00253504, Final residual = 5.97219e-06, No Iterations 11
smoothSolver:  Solving for Uy, Initial residual = 0.00357335, Final residual = 8.77127e-06, No Iterations 11
DICPCG:  Solving for p, Initial residual = 0.00349761, Final residual = 0.000159873, No Iterations 92
time step continuity errors : sum local = 2.27354e-08, global = 2.13597e-20, cumulative = 2.76643e-19
DICPCG:  Solving for p, Initial residual = 0.00298549, Final residual = 9.1114e-07, No Iterations 237
time step continuity errors : sum local = 1.24859e-10, global = -7.8482e-21, cumulative = 2.68795e-19
ExecutionTime = 12.32 s  ClockTime = 13 s

Time = 0.04

Courant Number mean: 0.12215 max: 0.964701
smoothSolver:  Solving for Ux, Initial residual = 0.00248895, Final residual = 5.8672e-06, No Iterations 11
smoothSolver:  Solving for Uy, Initial residual = 0.00351697, Final residual = 8.63307e-06, No Iterations 11
DICPCG:  Solving for p, Initial residual = 0.00358061, Final residual = 0.000167238, No Iterations 92
time step continuity errors : sum local = 2.45679e-08, global = -5.74986e-20, cumulative = 2.11296e-19
DICPCG:  Solving for p, Initial residual = 0.00311104, Final residual = 8.63456e-07, No Iterations 237
time step continuity errors : sum local = 1.18431e-10, global = 1.27032e-20, cumulative = 2.23999e-19
ExecutionTime = 12.49 s  ClockTime = 13 s

Time = 0.040625

Courant Number mean: 0.122808 max: 0.964926
smoothSolver:  Solving for Ux, Initial residual = 0.00245054, Final residual = 5.78148e-06, No Iterations 11
smoothSolver:  Solving for Uy, Initial residual = 0.00345425, Final residual = 8.47651e-06, No Iterations 11
DICPCG:  Solving for p, Initial residual = 0.00351759, Final residual = 0.000170702, No Iterations 184
time step continuity errors : sum local = 2.34021e-08, global = -2.91017e-20, cumulative = 1.94898e-19
DICPCG:  Solving for p, Initial residual = 0.00298283, Final residual = 8.75548e-07, No Iterations 237
time step continuity errors : sum local = 1.19915e-10, global = 5.62594e-20, cumulative = 2.51157e-19
ExecutionTime = 12.69 s  ClockTime = 13 s

Time = 0.04125

Courant Number mean: 0.123458 max: 0.965145
smoothSolver:  Solving for Ux, Initial residual = 0.00240627, Final residual = 9.84064e-06, No Iterations 10
smoothSolver:  Solving for Uy, Initial residual = 0.00340277, Final residual = 8.35245e-06, No Iterations 11
DICPCG:  Solving for p, Initial residual = 0.00337598, Final residual = 0.000151496, No Iterations 92
time step continuity errors : sum local = 2.14151e-08, global = -4.49181e-20, cumulative = 2.06239e-19
DICPCG:  Solving for p, Initial residual = 0.0028825, Final residual = 9.3036e-07, No Iterations 236
time step continuity errors : sum local = 1.27546e-10, global = -5.18617e-20, cumulative = 1.54377e-19
ExecutionTime = 12.86 s  ClockTime = 13 s

Time = 0.041875

Courant Number mean: 0.124098 max: 0.96536
smoothSolver:  Solving for Ux, Initial residual = 0.00236462, Final residual = 9.67464e-06, No Iterations 10
smoothSolver:  Solving for Uy, Initial residual = 0.00335085, Final residual = 8.22504e-06, No Iterations 11
DICPCG:  Solving for p, Initial residual = 0.00342938, Final residual = 0.000155734, No Iterations 92
time step continuity errors : sum local = 2.25917e-08, global = -2.49409e-20, cumulative = 1.29436e-19
DICPCG:  Solving for p, Initial residual = 0.00298309, Final residual = 9.45837e-07, No Iterations 236
time step continuity errors : sum local = 1.29745e-10, global = -5.26215e-21, cumulative = 1.24174e-19
ExecutionTime = 13.03 s  ClockTime = 13 s

Time = 0.0425

Courant Number mean: 0.124729 max: 0.965569
smoothSolver:  Solving for Ux, Initial residual = 0.00232877, Final residual = 9.53491e-06, No Iterations 10
smoothSolver:  Solving for Uy, Initial residual = 0.00329476, Final residual = 8.08534e-06, No Iterations 11
DICPCG:  Solving for p, Initial residual = 0.00336345, Final residual = 0.000160958, No Iterations 184
time step continuity errors : sum local = 2.20744e-08, global = 6.06206e-20, cumulative = 1.84795e-19
DICPCG:  Solving for p, Initial residual = 0.0028573, Final residual = 8.79657e-07, No Iterations 236
time step continuity errors : sum local = 1.20671e-10, global = -7.41658e-21, cumulative = 1.77378e-19
ExecutionTime = 13.24 s  ClockTime = 14 s

Time = 0.043125

Courant Number mean: 0.125352 max: 0.965774
smoothSolver:  Solving for Ux, Initial residual = 0.00228908, Final residual = 9.37779e-06, No Iterations 10
smoothSolver:  Solving for Uy, Initial residual = 0.00324721, Final residual = 7.97023e-06, No Iterations 11
DICPCG:  Solving for p, Initial residual = 0.00324194, Final residual = 0.00014338, No Iterations 92
time step continuity errors : sum local = 2.03124e-08, global = -1.34153e-20, cumulative = 1.63963e-19
DICPCG:  Solving for p, Initial residual = 0.0027692, Final residual = 9.26035e-07, No Iterations 236
time step continuity errors : sum local = 1.2702e-10, global = 1.71533e-20, cumulative = 1.81116e-19
ExecutionTime = 13.41 s  ClockTime = 14 s

Time = 0.04375

Courant Number mean: 0.125967 max: 0.965974
smoothSolver:  Solving for Ux, Initial residual = 0.00225087, Final residual = 9.22519e-06, No Iterations 10
smoothSolver:  Solving for Uy, Initial residual = 0.00319998, Final residual = 7.85433e-06, No Iterations 11
DICPCG:  Solving for p, Initial residual = 0.00329555, Final residual = 0.000149237, No Iterations 92
time step continuity errors : sum local = 2.17635e-08, global = 3.19792e-20, cumulative = 2.13096e-19
DICPCG:  Solving for p, Initial residual = 0.00286697, Final residual = 9.11589e-07, No Iterations 236
time step continuity errors : sum local = 1.25122e-10, global = -1.99533e-20, cumulative = 1.93142e-19
ExecutionTime = 13.57 s  ClockTime = 14 s

Time = 0.044375

Courant Number mean: 0.126574 max: 0.96617
smoothSolver:  Solving for Ux, Initial residual = 0.0022185, Final residual = 9.09827e-06, No Iterations 10
smoothSolver:  Solving for Uy, Initial residual = 0.00314827, Final residual = 7.72539e-06, No Iterations 11
DICPCG:  Solving for p, Initial residual = 0.00323903, Final residual = 0.000158858, No Iterations 184
time step continuity errors : sum local = 2.1798e-08, global = 3.58629e-20, cumulative = 2.29005e-19
DICPCG:  Solving for p, Initial residual = 0.00275574, Final residual = 9.91405e-07, No Iterations 235
time step continuity errors : sum local = 1.36139e-10, global = -2.87443e-22, cumulative = 2.28718e-19
ExecutionTime = 13.78 s  ClockTime = 14 s

Time = 0.045

Courant Number mean: 0.127176 max: 0.966362
smoothSolver:  Solving for Ux, Initial residual = 0.00218204, Final residual = 8.95269e-06, No Iterations 10
smoothSolver:  Solving for Uy, Initial residual = 0.00310489, Final residual = 7.62059e-06, No Iterations 11
DICPCG:  Solving for p, Initial residual = 0.00312836, Final residual = 0.00013617, No Iterations 92
time step continuity errors : sum local = 1.92777e-08, global = 7.74913e-20, cumulative = 3.06209e-19
DICPCG:  Solving for p, Initial residual = 0.00267236, Final residual = 9.02034e-07, No Iterations 236
time step continuity errors : sum local = 1.23812e-10, global = 3.3902e-20, cumulative = 3.40111e-19
ExecutionTime = 13.95 s  ClockTime = 14 s

Time = 0.045625

Courant Number mean: 0.12777 max: 0.96655
smoothSolver:  Solving for Ux, Initial residual = 0.00214688, Final residual = 8.812e-06, No Iterations 10
smoothSolver:  Solving for Uy, Initial residual = 0.00306147, Final residual = 7.51404e-06, No Iterations 11
DICPCG:  Solving for p, Initial residual = 0.00316866, Final residual = 0.000141773, No Iterations 92
time step continuity errors : sum local = 2.06298e-08, global = -1.80161e-20, cumulative = 3.22095e-19
DICPCG:  Solving for p, Initial residual = 0.00275775, Final residual = 8.90096e-07, No Iterations 236
time step continuity errors : sum local = 1.22235e-10, global = 9.68773e-20, cumulative = 4.18972e-19
ExecutionTime = 14.12 s  ClockTime = 14 s

Time = 0.04625

Courant Number mean: 0.128357 max: 0.966734
smoothSolver:  Solving for Ux, Initial residual = 0.0021169, Final residual = 8.69458e-06, No Iterations 10
smoothSolver:  Solving for Uy, Initial residual = 0.00301406, Final residual = 7.39588e-06, No Iterations 11
DICPCG:  Solving for p, Initial residual = 0.00311499, Final residual = 0.000135513, No Iterations 185
time step continuity errors : sum local = 1.86102e-08, global = -1.4823e-21, cumulative = 4.1749e-19
DICPCG:  Solving for p, Initial residual = 0.00265087, Final residual = 9.98801e-07, No Iterations 235
time step continuity errors : sum local = 1.3723e-10, global = -6.63895e-20, cumulative = 3.511e-19
ExecutionTime = 14.33 s  ClockTime = 15 s

Time = 0.046875

Courant Number mean: 0.128937 max: 0.966914
smoothSolver:  Solving for Ux, Initial residual = 0.0020835, Final residual = 8.56148e-06, No Iterations 10
smoothSolver:  Solving for Uy, Initial residual = 0.00297391, Final residual = 7.2988e-06, No Iterations 11
DICPCG:  Solving for p, Initial residual = 0.00299598, Final residual = 0.000134403, No Iterations 92
time step continuity errors : sum local = 1.90454e-08, global = -2.23825e-20, cumulative = 3.28718e-19
DICPCG:  Solving for p, Initial residual = 0.00256397, Final residual = 8.79676e-07, No Iterations 236
time step continuity errors : sum local = 1.20821e-10, global = -3.09299e-20, cumulative = 2.97788e-19
ExecutionTime = 14.5 s  ClockTime = 15 s

Time = 0.0475

Courant Number mean: 0.129511 max: 0.96709
smoothSolver:  Solving for Ux, Initial residual = 0.00205107, Final residual = 8.43121e-06, No Iterations 10
smoothSolver:  Solving for Uy, Initial residual = 0.00293414, Final residual = 7.2011e-06, No Iterations 11
DICPCG:  Solving for p, Initial residual = 0.00305371, Final residual = 0.000135199, No Iterations 92
time step continuity errors : sum local = 1.97793e-08, global = 4.883e-21, cumulative = 3.02671e-19
DICPCG:  Solving for p, Initial residual = 0.00265836, Final residual = 8.7281e-07, No Iterations 236
time step continuity errors : sum local = 1.19919e-10, global = 9.74305e-20, cumulative = 4.00101e-19
ExecutionTime = 14.67 s  ClockTime = 15 s

Time = 0.048125

Courant Number mean: 0.130077 max: 0.967263
smoothSolver:  Solving for Ux, Initial residual = 0.0020238, Final residual = 8.32372e-06, No Iterations 10
smoothSolver:  Solving for Uy, Initial residual = 0.0028901, Final residual = 7.0912e-06, No Iterations 11
DICPCG:  Solving for p, Initial residual = 0.00300838, Final residual = 0.000130894, No Iterations 185
time step continuity errors : sum local = 1.79846e-08, global = -8.08482e-21, cumulative = 3.92017e-19
DICPCG:  Solving for p, Initial residual = 0.00256227, Final residual = 9.80412e-07, No Iterations 235
time step continuity errors : sum local = 1.34791e-10, global = 9.52615e-20, cumulative = 4.87278e-19
ExecutionTime = 14.88 s  ClockTime = 15 s

Time = 0.04875

Courant Number mean: 0.130637 max: 0.967432
smoothSolver:  Solving for Ux, Initial residual = 0.00199286, Final residual = 8.19957e-06, No Iterations 10
smoothSolver:  Solving for Uy, Initial residual = 0.0028532, Final residual = 7.00212e-06, No Iterations 11
DICPCG:  Solving for p, Initial residual = 0.00289445, Final residual = 0.00012721, No Iterations 92
time step continuity errors : sum local = 1.80206e-08, global = 1.13253e-22, cumulative = 4.87391e-19
DICPCG:  Solving for p, Initial residual = 0.00247695, Final residual = 8.64503e-07, No Iterations 236
time step continuity errors : sum local = 1.18814e-10, global = -9.38065e-21, cumulative = 4.78011e-19
ExecutionTime = 15.06 s  ClockTime = 15 s

Time = 0.049375

Courant Number mean: 0.13119 max: 0.967599
smoothSolver:  Solving for Ux, Initial residual = 0.00196286, Final residual = 8.079e-06, No Iterations 10
smoothSolver:  Solving for Uy, Initial residual = 0.00281638, Final residual = 6.9117e-06, No Iterations 11
DICPCG:  Solving for p, Initial residual = 0.00294514, Final residual = 0.000143871, No Iterations 91
time step continuity errors : sum local = 2.08934e-08, global = 1.16374e-20, cumulative = 4.89648e-19
DICPCG:  Solving for p, Initial residual = 0.00255483, Final residual = 8.52099e-07, No Iterations 236
time step continuity errors : sum local = 1.17123e-10, global = 1.07266e-19, cumulative = 5.96914e-19
ExecutionTime = 15.22 s  ClockTime = 16 s

Time = 0.05

Courant Number mean: 0.131737 max: 0.967762
smoothSolver:  Solving for Ux, Initial residual = 0.00193743, Final residual = 7.97908e-06, No Iterations 10
smoothSolver:  Solving for Uy, Initial residual = 0.00277589, Final residual = 6.81066e-06, No Iterations 11
DICPCG:  Solving for p, Initial residual = 0.00293173, Final residual = 0.000125946, No Iterations 185
time step continuity errors : sum local = 1.7315e-08, global = 3.11317e-20, cumulative = 6.28046e-19
DICPCG:  Solving for p, Initial residual = 0.002493, Final residual = 9.61738e-07, No Iterations 235
time step continuity errors : sum local = 1.32298e-10, global = -3.1035e-21, cumulative = 6.24942e-19
ExecutionTime = 15.49 s  ClockTime = 16 s

Time = 0.050625

Courant Number mean: 0.132277 max: 0.967922
smoothSolver:  Solving for Ux, Initial residual = 0.00190901, Final residual = 7.86526e-06, No Iterations 10
smoothSolver:  Solving for Uy, Initial residual = 0.00274143, Final residual = 6.72744e-06, No Iterations 11
DICPCG:  Solving for p, Initial residual = 0.00280102, Final residual = 0.000121666, No Iterations 92
time step continuity errors : sum local = 1.72493e-08, global = 1.05138e-19, cumulative = 7.30081e-19
DICPCG:  Solving for p, Initial residual = 0.00240087, Final residual = 9.88923e-07, No Iterations 235
time step continuity errors : sum local = 1.36082e-10, global = 3.72083e-20, cumulative = 7.67289e-19
ExecutionTime = 15.66 s  ClockTime = 16 s

Time = 0.05125

Courant Number mean: 0.132813 max: 0.968078
smoothSolver:  Solving for Ux, Initial residual = 0.00188123, Final residual = 7.75307e-06, No Iterations 10
smoothSolver:  Solving for Uy, Initial residual = 0.00270731, Final residual = 6.64361e-06, No Iterations 11
DICPCG:  Solving for p, Initial residual = 0.00284441, Final residual = 0.00013796, No Iterations 91
time step continuity errors : sum local = 2.00663e-08, global = -9.28628e-20, cumulative = 6.74426e-19
DICPCG:  Solving for p, Initial residual = 0.00246815, Final residual = 9.83862e-07, No Iterations 235
time step continuity errors : sum local = 1.35328e-10, global = 9.65069e-20, cumulative = 7.70933e-19
ExecutionTime = 15.82 s  ClockTime = 16 s

Time = 0.051875

Courant Number mean: 0.133343 max: 0.968232
smoothSolver:  Solving for Ux, Initial residual = 0.00185784, Final residual = 7.66031e-06, No Iterations 10
smoothSolver:  Solving for Uy, Initial residual = 0.00266962, Final residual = 6.54953e-06, No Iterations 11
DICPCG:  Solving for p, Initial residual = 0.00283598, Final residual = 0.000121858, No Iterations 185
time step continuity errors : sum local = 1.67607e-08, global = -9.26357e-20, cumulative = 6.78298e-19
DICPCG:  Solving for p, Initial residual = 0.0024126, Final residual = 9.42089e-07, No Iterations 235
time step continuity errors : sum local = 1.29669e-10, global = 9.1399e-20, cumulative = 7.69696e-19
ExecutionTime = 16.03 s  ClockTime = 16 s

Time = 0.0525

Courant Number mean: 0.133868 max: 0.968383
smoothSolver:  Solving for Ux, Initial residual = 0.00183145, Final residual = 7.55415e-06, No Iterations 10
smoothSolver:  Solving for Uy, Initial residual = 0.00263763, Final residual = 6.47231e-06, No Iterations 11
DICPCG:  Solving for p, Initial residual = 0.00271312, Final residual = 0.000116068, No Iterations 92
time step continuity errors : sum local = 1.64589e-08, global = -6.46411e-20, cumulative = 7.05055e-19
DICPCG:  Solving for p, Initial residual = 0.00232575, Final residual = 9.72683e-07, No Iterations 235
time step continuity errors : sum local = 1.33924e-10, global = 4.01978e-20, cumulative = 7.45253e-19
ExecutionTime = 16.2 s  ClockTime = 16 s

Time = 0.053125

Courant Number mean: 0.134387 max: 0.968531
smoothSolver:  Solving for Ux, Initial residual = 0.00180553, Final residual = 7.44967e-06, No Iterations 10
smoothSolver:  Solving for Uy, Initial residual = 0.00260587, Final residual = 6.39428e-06, No Iterations 11
DICPCG:  Solving for p, Initial residual = 0.00275076, Final residual = 0.000132995, No Iterations 91
time step continuity errors : sum local = 1.93344e-08, global = -9.77124e-20, cumulative = 6.47541e-19
DICPCG:  Solving for p, Initial residual = 0.00238825, Final residual = 9.67815e-07, No Iterations 235
time step continuity errors : sum local = 1.33198e-10, global = 7.82844e-21, cumulative = 6.55369e-19
ExecutionTime = 16.37 s  ClockTime = 17 s

Time = 0.05375

Courant Number mean: 0.134901 max: 0.968676
smoothSolver:  Solving for Ux, Initial residual = 0.0017837, Final residual = 7.36343e-06, No Iterations 10
smoothSolver:  Solving for Uy, Initial residual = 0.00257078, Final residual = 6.30669e-06, No Iterations 11
DICPCG:  Solving for p, Initial residual = 0.00274299, Final residual = 0.000119403, No Iterations 185
time step continuity errors : sum local = 1.64324e-08, global = 4.95982e-20, cumulative = 7.04967e-19
DICPCG:  Solving for p, Initial residual = 0.00233623, Final residual = 9.32722e-07, No Iterations 235
time step continuity errors : sum local = 1.28445e-10, global = 4.68798e-20, cumulative = 7.51847e-19
ExecutionTime = 16.57 s  ClockTime = 17 s

Time = 0.054375

Courant Number mean: 0.13541 max: 0.968819
smoothSolver:  Solving for Ux, Initial residual = 0.00175923, Final residual = 7.26491e-06, No Iterations 10
smoothSolver:  Solving for Uy, Initial residual = 0.00254094, Final residual = 6.23464e-06, No Iterations 11
DICPCG:  Solving for p, Initial residual = 0.00262862, Final residual = 0.000112479, No Iterations 92
time step continuity errors : sum local = 1.59546e-08, global = 3.60608e-20, cumulative = 7.87908e-19
DICPCG:  Solving for p, Initial residual = 0.00225461, Final residual = 9.61037e-07, No Iterations 235
time step continuity errors : sum local = 1.32392e-10, global = 1.18074e-20, cumulative = 7.99715e-19
ExecutionTime = 16.74 s  ClockTime = 17 s

Time = 0.055

Courant Number mean: 0.135912 max: 0.968959
smoothSolver:  Solving for Ux, Initial residual = 0.00173516, Final residual = 7.16736e-06, No Iterations 10
smoothSolver:  Solving for Uy, Initial residual = 0.00251134, Final residual = 6.16191e-06, No Iterations 11
DICPCG:  Solving for p, Initial residual = 0.0026633, Final residual = 0.000130271, No Iterations 91
time step continuity errors : sum local = 1.89389e-08, global = -4.66876e-20, cumulative = 7.53028e-19
DICPCG:  Solving for p, Initial residual = 0.00231383, Final residual = 9.65561e-07, No Iterations 235
time step continuity errors : sum local = 1.32958e-10, global = 5.21029e-20, cumulative = 8.05131e-19
ExecutionTime = 16.91 s  ClockTime = 17 s

Time = 0.055625

Courant Number mean: 0.13641 max: 0.969097
smoothSolver:  Solving for Ux, Initial residual = 0.00171495, Final residual = 7.08701e-06, No Iterations 10
smoothSolver:  Solving for Uy, Initial residual = 0.00247853, Final residual = 6.07999e-06, No Iterations 11
DICPCG:  Solving for p, Initial residual = 0.00265738, Final residual = 0.000116913, No Iterations 185
time step continuity errors : sum local = 1.60973e-08, global = -6.73912e-20, cumulative = 7.3774e-19
DICPCG:  Solving for p, Initial residual = 0.00226531, Final residual = 9.14051e-07, No Iterations 235
time step continuity errors : sum local = 1.25935e-10, global = -1.20449e-19, cumulative = 6.17291e-19
ExecutionTime = 17.12 s  ClockTime = 17 s

Time = 0.05625

Courant Number mean: 0.136902 max: 0.969232
smoothSolver:  Solving for Ux, Initial residual = 0.0016921, Final residual = 6.99479e-06, No Iterations 10
smoothSolver:  Solving for Uy, Initial residual = 0.00245067, Final residual = 6.01276e-06, No Iterations 11
DICPCG:  Solving for p, Initial residual = 0.00255062, Final residual = 0.000126364, No Iterations 91
time step continuity errors : sum local = 1.7844e-08, global = 9.33864e-20, cumulative = 7.10677e-19
DICPCG:  Solving for p, Initial residual = 0.00218991, Final residual = 9.49471e-07, No Iterations 235
time step continuity errors : sum local = 1.30862e-10, global = 1.9793e-20, cumulative = 7.3047e-19
ExecutionTime = 17.28 s  ClockTime = 18 s

Time = 0.056875

Courant Number mean: 0.137389 max: 0.969365
smoothSolver:  Solving for Ux, Initial residual = 0.00166948, Final residual = 6.90314e-06, No Iterations 10
smoothSolver:  Solving for Uy, Initial residual = 0.00242312, Final residual = 5.94507e-06, No Iterations 11
DICPCG:  Solving for p, Initial residual = 0.00260719, Final residual = 0.000123624, No Iterations 91
time step continuity errors : sum local = 1.80074e-08, global = -1.57834e-19, cumulative = 5.72636e-19
DICPCG:  Solving for p, Initial residual = 0.00227969, Final residual = 9.44526e-07, No Iterations 235
time step continuity errors : sum local = 1.30127e-10, global = 1.35554e-19, cumulative = 7.0819e-19
ExecutionTime = 17.45 s  ClockTime = 18 s

Time = 0.0575

Courant Number mean: 0.137871 max: 0.969496
smoothSolver:  Solving for Ux, Initial residual = 0.00165073, Final residual = 6.82879e-06, No Iterations 10
smoothSolver:  Solving for Uy, Initial residual = 0.00239222, Final residual = 5.86789e-06, No Iterations 11
DICPCG:  Solving for p, Initial residual = 0.00256776, Final residual = 0.000113622, No Iterations 185
time step continuity errors : sum local = 1.56509e-08, global = -5.63856e-20, cumulative = 6.51804e-19
DICPCG:  Solving for p, Initial residual = 0.0021933, Final residual = 8.95238e-07, No Iterations 235
time step continuity errors : sum local = 1.23398e-10, global = 7.24839e-20, cumulative = 7.24288e-19
ExecutionTime = 17.66 s  ClockTime = 18 s

Time = 0.058125

Courant Number mean: 0.138349 max: 0.969624
smoothSolver:  Solving for Ux, Initial residual = 0.00162943, Final residual = 6.74283e-06, No Iterations 10
smoothSolver:  Solving for Uy, Initial residual = 0.00236615, Final residual = 5.80501e-06, No Iterations 11
DICPCG:  Solving for p, Initial residual = 0.00247701, Final residual = 0.00012207, No Iterations 91
time step continuity errors : sum local = 1.72395e-08, global = 3.54291e-20, cumulative = 7.59717e-19
DICPCG:  Solving for p, Initial residual = 0.00212906, Final residual = 9.34614e-07, No Iterations 235
time step continuity errors : sum local = 1.28873e-10, global = 6.9933e-20, cumulative = 8.2965e-19
ExecutionTime = 17.83 s  ClockTime = 18 s

Time = 0.05875

Courant Number mean: 0.138823 max: 0.96975
smoothSolver:  Solving for Ux, Initial residual = 0.0016083, Final residual = 6.65695e-06, No Iterations 10
smoothSolver:  Solving for Uy, Initial residual = 0.00234032, Final residual = 9.91517e-06, No Iterations 10
DICPCG:  Solving for p, Initial residual = 0.00251106, Final residual = 0.000117352, No Iterations 91
time step continuity errors : sum local = 1.70314e-08, global = -1.99436e-20, cumulative = 8.09707e-19
DICPCG:  Solving for p, Initial residual = 0.00219275, Final residual = 9.23869e-07, No Iterations 235
time step continuity errors : sum local = 1.2734e-10, global = -6.0514e-20, cumulative = 7.49193e-19
ExecutionTime = 18 s  ClockTime = 18 s

Time = 0.059375

Courant Number mean: 0.139292 max: 0.969873
smoothSolver:  Solving for Ux, Initial residual = 0.0015906, Final residual = 6.58626e-06, No Iterations 10
smoothSolver:  Solving for Uy, Initial residual = 0.00231161, Final residual = 9.79177e-06, No Iterations 10
DICPCG:  Solving for p, Initial residual = 0.00246957, Final residual = 0.000112852, No Iterations 185
time step continuity errors : sum local = 1.55587e-08, global = -2.20715e-20, cumulative = 7.27121e-19
DICPCG:  Solving for p, Initial residual = 0.00210735, Final residual = 8.91096e-07, No Iterations 235
time step continuity errors : sum local = 1.22851e-10, global = -7.8831e-21, cumulative = 7.19238e-19
ExecutionTime = 18.2 s  ClockTime = 19 s

Time = 0.06

Courant Number mean: 0.139757 max: 0.969995
smoothSolver:  Solving for Ux, Initial residual = 0.0015708, Final residual = 6.50602e-06, No Iterations 10
smoothSolver:  Solving for Uy, Initial residual = 0.00228693, Final residual = 9.68867e-06, No Iterations 10
DICPCG:  Solving for p, Initial residual = 0.00238986, Final residual = 0.00011647, No Iterations 91
time step continuity errors : sum local = 1.6556e-08, global = 9.35015e-20, cumulative = 8.1274e-19
DICPCG:  Solving for p, Initial residual = 0.00205186, Final residual = 9.23589e-07, No Iterations 235
time step continuity errors : sum local = 1.2739e-10, global = 1.14848e-19, cumulative = 9.27588e-19
ExecutionTime = 18.38 s  ClockTime = 19 s

Time = 0.060625

Courant Number mean: 0.140218 max: 0.970115
smoothSolver:  Solving for Ux, Initial residual = 0.00155088, Final residual = 6.42482e-06, No Iterations 10
smoothSolver:  Solving for Uy, Initial residual = 0.00226305, Final residual = 9.58733e-06, No Iterations 10
DICPCG:  Solving for p, Initial residual = 0.00244065, Final residual = 0.000116959, No Iterations 91
time step continuity errors : sum local = 1.7257e-08, global = -3.80716e-20, cumulative = 8.89516e-19
DICPCG:  Solving for p, Initial residual = 0.00213204, Final residual = 9.06861e-07, No Iterations 235
time step continuity errors : sum local = 1.25048e-10, global = 3.72482e-20, cumulative = 9.26764e-19
ExecutionTime = 18.54 s  ClockTime = 19 s

Time = 0.06125

Courant Number mean: 0.140674 max: 0.970233
smoothSolver:  Solving for Ux, Initial residual = 0.00153499, Final residual = 6.36188e-06, No Iterations 10
smoothSolver:  Solving for Uy, Initial residual = 0.00223514, Final residual = 9.46676e-06, No Iterations 10
DICPCG:  Solving for p, Initial residual = 0.0024157, Final residual = 0.000110488, No Iterations 185
time step continuity errors : sum local = 1.5234e-08, global = 1.02427e-19, cumulative = 1.02919e-18
DICPCG:  Solving for p, Initial residual = 0.00206259, Final residual = 8.71365e-07, No Iterations 235
time step continuity errors : sum local = 1.20184e-10, global = -7.04418e-21, cumulative = 1.02215e-18
ExecutionTime = 18.75 s  ClockTime = 19 s

Time = 0.061875

Courant Number mean: 0.141126 max: 0.970349
smoothSolver:  Solving for Ux, Initial residual = 0.00151585, Final residual = 6.28439e-06, No Iterations 10
smoothSolver:  Solving for Uy, Initial residual = 0.00221241, Final residual = 9.37246e-06, No Iterations 10
DICPCG:  Solving for p, Initial residual = 0.00232672, Final residual = 0.000111131, No Iterations 91
time step continuity errors : sum local = 1.57572e-08, global = 1.19836e-19, cumulative = 1.14198e-18
DICPCG:  Solving for p, Initial residual = 0.00199683, Final residual = 9.03878e-07, No Iterations 235
time step continuity errors : sum local = 1.24723e-10, global = 4.37575e-20, cumulative = 1.18574e-18
ExecutionTime = 18.91 s  ClockTime = 19 s

Time = 0.0625

Courant Number mean: 0.141573 max: 0.970463
smoothSolver:  Solving for Ux, Initial residual = 0.00149718, Final residual = 6.20818e-06, No Iterations 10
smoothSolver:  Solving for Uy, Initial residual = 0.0021898, Final residual = 9.2766e-06, No Iterations 10
DICPCG:  Solving for p, Initial residual = 0.00236853, Final residual = 0.000110981, No Iterations 91
time step continuity errors : sum local = 1.62559e-08, global = 8.93111e-20, cumulative = 1.27505e-18
DICPCG:  Solving for p, Initial residual = 0.00206871, Final residual = 8.87322e-07, No Iterations 235
time step continuity errors : sum local = 1.22406e-10, global = 9.38369e-20, cumulative = 1.36889e-18
ExecutionTime = 19.15 s  ClockTime = 19 s

Time = 0.063125

Courant Number mean: 0.142016 max: 0.970575
smoothSolver:  Solving for Ux, Initial residual = 0.00148203, Final residual = 6.14758e-06, No Iterations 10
smoothSolver:  Solving for Uy, Initial residual = 0.00216384, Final residual = 9.16465e-06, No Iterations 10
DICPCG:  Solving for p, Initial residual = 0.00234041, Final residual = 0.000107259, No Iterations 185
time step continuity errors : sum local = 1.47973e-08, global = -6.02747e-20, cumulative = 1.30861e-18
DICPCG:  Solving for p, Initial residual = 0.00199948, Final residual = 8.54213e-07, No Iterations 235
time step continuity errors : sum local = 1.17857e-10, global = -4.28805e-20, cumulative = 1.26573e-18
ExecutionTime = 19.35 s  ClockTime = 20 s

Time = 0.06375

Courant Number mean: 0.142455 max: 0.970685
smoothSolver:  Solving for Ux, Initial residual = 0.00146436, Final residual = 6.07586e-06, No Iterations 10
smoothSolver:  Solving for Uy, Initial residual = 0.00214218, Final residual = 9.07448e-06, No Iterations 10
DICPCG:  Solving for p, Initial residual = 0.00226341, Final residual = 0.000107494, No Iterations 91
time step continuity errors : sum local = 1.52725e-08, global = 8.0671e-20, cumulative = 1.3464e-18
DICPCG:  Solving for p, Initial residual = 0.00194291, Final residual = 8.80009e-07, No Iterations 235
time step continuity errors : sum local = 1.21474e-10, global = 6.08083e-20, cumulative = 1.40721e-18
ExecutionTime = 19.52 s  ClockTime = 20 s

Time = 0.064375

Courant Number mean: 0.14289 max: 0.970794
smoothSolver:  Solving for Ux, Initial residual = 0.00144673, Final residual = 6.00381e-06, No Iterations 10
smoothSolver:  Solving for Uy, Initial residual = 0.00212095, Final residual = 8.98441e-06, No Iterations 10
DICPCG:  Solving for p, Initial residual = 0.00230514, Final residual = 0.000107713, No Iterations 91
time step continuity errors : sum local = 1.5858e-08, global = -1.57308e-20, cumulative = 1.39148e-18
DICPCG:  Solving for p, Initial residual = 0.002013, Final residual = 9.97233e-07, No Iterations 234
time step continuity errors : sum local = 1.37638e-10, global = 6.45676e-20, cumulative = 1.45605e-18
ExecutionTime = 19.69 s  ClockTime = 20 s

Time = 0.065

Courant Number mean: 0.143321 max: 0.970901
smoothSolver:  Solving for Ux, Initial residual = 0.00143262, Final residual = 5.94768e-06, No Iterations 10
smoothSolver:  Solving for Uy, Initial residual = 0.00209623, Final residual = 8.87769e-06, No Iterations 10
DICPCG:  Solving for p, Initial residual = 0.00228102, Final residual = 0.000104279, No Iterations 185
time step continuity errors : sum local = 1.43908e-08, global = 3.48e-20, cumulative = 1.49085e-18
DICPCG:  Solving for p, Initial residual = 0.00194968, Final residual = 9.82862e-07, No Iterations 234
time step continuity errors : sum local = 1.35691e-10, global = 4.67503e-20, cumulative = 1.5376e-18
ExecutionTime = 19.89 s  ClockTime = 20 s

Time = 0.065625

Courant Number mean: 0.143747 max: 0.971006
smoothSolver:  Solving for Ux, Initial residual = 0.00141585, Final residual = 5.87961e-06, No Iterations 10
smoothSolver:  Solving for Uy, Initial residual = 0.00207589, Final residual = 8.79317e-06, No Iterations 10
DICPCG:  Solving for p, Initial residual = 0.00220506, Final residual = 0.000102967, No Iterations 91
time step continuity errors : sum local = 1.46263e-08, global = 4.67983e-20, cumulative = 1.5844e-18
DICPCG:  Solving for p, Initial residual = 0.00189199, Final residual = 9.91709e-07, No Iterations 234
time step continuity errors : sum local = 1.36962e-10, global = -3.60346e-21, cumulative = 1.5808e-18
ExecutionTime = 20.06 s  ClockTime = 20 s

Time = 0.06625

Courant Number mean: 0.144171 max: 0.97111
smoothSolver:  Solving for Ux, Initial residual = 0.0013993, Final residual = 5.81182e-06, No Iterations 10
smoothSolver:  Solving for Uy, Initial residual = 0.0020558, Final residual = 8.70801e-06, No Iterations 10
DICPCG:  Solving for p, Initial residual = 0.00224219, Final residual = 0.000102928, No Iterations 91
time step continuity errors : sum local = 1.51396e-08, global = -3.03799e-21, cumulative = 1.57776e-18
DICPCG:  Solving for p, Initial residual = 0.00195782, Final residual = 9.71944e-07, No Iterations 234
time step continuity errors : sum local = 1.34195e-10, global = -4.64084e-20, cumulative = 1.53135e-18
ExecutionTime = 20.22 s  ClockTime = 21 s

Time = 0.066875

Courant Number mean: 0.144592 max: 0.971212
smoothSolver:  Solving for Ux, Initial residual = 0.00138604, Final residual = 9.96293e-06, No Iterations 9
smoothSolver:  Solving for Uy, Initial residual = 0.00203247, Final residual = 8.60737e-06, No Iterations 10
DICPCG:  Solving for p, Initial residual = 0.00223687, Final residual = 9.71906e-05, No Iterations 185
time step continuity errors : sum local = 1.3413e-08, global = 1.70027e-20, cumulative = 1.54835e-18
DICPCG:  Solving for p, Initial residual = 0.00191653, Final residual = 9.60188e-07, No Iterations 233
time step continuity errors : sum local = 1.3272e-10, global = -9.71977e-20, cumulative = 1.45115e-18
ExecutionTime = 20.43 s  ClockTime = 21 s

Time = 0.0675

Courant Number mean: 0.145008 max: 0.971313
smoothSolver:  Solving for Ux, Initial residual = 0.00137038, Final residual = 9.85276e-06, No Iterations 9
smoothSolver:  Solving for Uy, Initial residual = 0.00201311, Final residual = 8.52676e-06, No Iterations 10
DICPCG:  Solving for p, Initial residual = 0.00216486, Final residual = 0.0001009, No Iterations 91
time step continuity errors : sum local = 1.42003e-08, global = -2.94082e-20, cumulative = 1.42175e-18
DICPCG:  Solving for p, Initial residual = 0.00186169, Final residual = 9.73896e-07, No Iterations 233
time step continuity errors : sum local = 1.34623e-10, global = 4.85862e-20, cumulative = 1.47033e-18
ExecutionTime = 20.59 s  ClockTime = 21 s

Time = 0.068125

Courant Number mean: 0.145421 max: 0.971412
smoothSolver:  Solving for Ux, Initial residual = 0.00135481, Final residual = 9.74246e-06, No Iterations 9
[...]
time step continuity errors : sum local = 1.35044e-10, global = -4.57743e-20, cumulative = 5.64429e-18
ExecutionTime = 127.29 s  ClockTime = 128 s

Time = 0.48375

Courant Number mean: 0.222363 max: 0.980618
smoothSolver:  Solving for Ux, Initial residual = 8.3918e-05, Final residual = 9.45676e-06, No Iterations 4
smoothSolver:  Solving for Uy, Initial residual = 0.000104678, Final residual = 6.82187e-06, No Iterations 5
DICPCG:  Solving for p, Initial residual = 0.000200407, Final residual = 9.19445e-06, No Iterations 154
time step continuity errors : sum local = 1.30638e-09, global = -4.5137e-20, cumulative = 5.59915e-18
DICPCG:  Solving for p, Initial residual = 0.000191329, Final residual = 9.75554e-07, No Iterations 190
time step continuity errors : sum local = 1.37766e-10, global = -9.2622e-20, cumulative = 5.50653e-18
ExecutionTime = 127.45 s  ClockTime = 128 s

Time = 0.484375

Courant Number mean: 0.222391 max: 0.980619
smoothSolver:  Solving for Ux, Initial residual = 8.36477e-05, Final residual = 9.42643e-06, No Iterations 4
smoothSolver:  Solving for Uy, Initial residual = 0.000104347, Final residual = 6.80018e-06, No Iterations 5
DICPCG:  Solving for p, Initial residual = 0.000202282, Final residual = 8.78601e-06, No Iterations 175
time step continuity errors : sum local = 1.2386e-09, global = -2.1465e-20, cumulative = 5.48506e-18
DICPCG:  Solving for p, Initial residual = 0.000192141, Final residual = 9.6594e-07, No Iterations 194
time step continuity errors : sum local = 1.36389e-10, global = -1.08065e-19, cumulative = 5.377e-18
ExecutionTime = 127.63 s  ClockTime = 128 s

Time = 0.485

Courant Number mean: 0.222419 max: 0.98062
smoothSolver:  Solving for Ux, Initial residual = 8.34037e-05, Final residual = 9.39883e-06, No Iterations 4
smoothSolver:  Solving for Uy, Initial residual = 0.000104015, Final residual = 6.77863e-06, No Iterations 5
DICPCG:  Solving for p, Initial residual = 0.000199172, Final residual = 8.80788e-06, No Iterations 154
time step continuity errors : sum local = 1.25172e-09, global = -2.09581e-20, cumulative = 5.35604e-18
DICPCG:  Solving for p, Initial residual = 0.000190101, Final residual = 9.77472e-07, No Iterations 190
time step continuity errors : sum local = 1.38037e-10, global = 5.3885e-20, cumulative = 5.40992e-18
ExecutionTime = 127.8 s  ClockTime = 128 s

Time = 0.485625

Courant Number mean: 0.222446 max: 0.980622
smoothSolver:  Solving for Ux, Initial residual = 8.31348e-05, Final residual = 9.36867e-06, No Iterations 4
smoothSolver:  Solving for Uy, Initial residual = 0.000103687, Final residual = 6.75711e-06, No Iterations 5
DICPCG:  Solving for p, Initial residual = 0.000201097, Final residual = 8.87401e-06, No Iterations 175
time step continuity errors : sum local = 1.251e-09, global = 4.15794e-20, cumulative = 5.4515e-18
DICPCG:  Solving for p, Initial residual = 0.00019094, Final residual = 9.62019e-07, No Iterations 194
time step continuity errors : sum local = 1.35845e-10, global = 1.05257e-19, cumulative = 5.55676e-18
ExecutionTime = 127.97 s  ClockTime = 129 s

Time = 0.48625

Courant Number mean: 0.222474 max: 0.980623
smoothSolver:  Solving for Ux, Initial residual = 8.28923e-05, Final residual = 9.34122e-06, No Iterations 4
smoothSolver:  Solving for Uy, Initial residual = 0.000103357, Final residual = 6.73568e-06, No Iterations 5
DICPCG:  Solving for p, Initial residual = 0.00019796, Final residual = 8.89743e-06, No Iterations 154
time step continuity errors : sum local = 1.26451e-09, global = 4.6512e-20, cumulative = 5.60327e-18
DICPCG:  Solving for p, Initial residual = 0.000189016, Final residual = 9.69326e-07, No Iterations 190
time step continuity errors : sum local = 1.36902e-10, global = 5.52729e-20, cumulative = 5.65855e-18
ExecutionTime = 128.14 s  ClockTime = 129 s

Time = 0.486875

Courant Number mean: 0.222502 max: 0.980624
smoothSolver:  Solving for Ux, Initial residual = 8.2625e-05, Final residual = 9.31123e-06, No Iterations 4
smoothSolver:  Solving for Uy, Initial residual = 0.000103031, Final residual = 6.7143e-06, No Iterations 5
DICPCG:  Solving for p, Initial residual = 0.0001998, Final residual = 8.75618e-06, No Iterations 175
time step continuity errors : sum local = 1.23444e-09, global = 9.57853e-20, cumulative = 5.75433e-18
DICPCG:  Solving for p, Initial residual = 0.000189776, Final residual = 9.74586e-07, No Iterations 194
time step continuity errors : sum local = 1.37616e-10, global = 8.22217e-20, cumulative = 5.83655e-18
ExecutionTime = 128.31 s  ClockTime = 129 s

Time = 0.4875

Courant Number mean: 0.222529 max: 0.980625
smoothSolver:  Solving for Ux, Initial residual = 8.23836e-05, Final residual = 9.28393e-06, No Iterations 4
smoothSolver:  Solving for Uy, Initial residual = 0.000102703, Final residual = 6.69304e-06, No Iterations 5
DICPCG:  Solving for p, Initial residual = 0.000196699, Final residual = 8.88665e-06, No Iterations 154
time step continuity errors : sum local = 1.26284e-09, global = 6.65405e-20, cumulative = 5.90309e-18
DICPCG:  Solving for p, Initial residual = 0.000187779, Final residual = 9.79584e-07, No Iterations 190
time step continuity errors : sum local = 1.38352e-10, global = -1.75844e-19, cumulative = 5.72725e-18
ExecutionTime = 128.54 s  ClockTime = 129 s

Time = 0.488125

Courant Number mean: 0.222556 max: 0.980626
smoothSolver:  Solving for Ux, Initial residual = 8.21178e-05, Final residual = 9.25411e-06, No Iterations 4
smoothSolver:  Solving for Uy, Initial residual = 0.00010238, Final residual = 6.67182e-06, No Iterations 5
DICPCG:  Solving for p, Initial residual = 0.000198585, Final residual = 8.81316e-06, No Iterations 175
time step continuity errors : sum local = 1.24246e-09, global = -9.81126e-21, cumulative = 5.71744e-18
DICPCG:  Solving for p, Initial residual = 0.000188577, Final residual = 9.72995e-07, No Iterations 194
time step continuity errors : sum local = 1.37398e-10, global = 6.13199e-21, cumulative = 5.72357e-18
ExecutionTime = 128.72 s  ClockTime = 129 s

Time = 0.48875

Courant Number mean: 0.222584 max: 0.980627
smoothSolver:  Solving for Ux, Initial residual = 8.1878e-05, Final residual = 9.22697e-06, No Iterations 4
smoothSolver:  Solving for Uy, Initial residual = 0.000102053, Final residual = 6.65068e-06, No Iterations 5
DICPCG:  Solving for p, Initial residual = 0.000195534, Final residual = 8.96347e-06, No Iterations 154
time step continuity errors : sum local = 1.27382e-09, global = -1.54212e-19, cumulative = 5.56936e-18
DICPCG:  Solving for p, Initial residual = 0.000186708, Final residual = 9.61207e-07, No Iterations 190
time step continuity errors : sum local = 1.35776e-10, global = 9.56925e-20, cumulative = 5.66505e-18
ExecutionTime = 128.89 s  ClockTime = 130 s

Time = 0.489375

Courant Number mean: 0.222611 max: 0.980628
smoothSolver:  Solving for Ux, Initial residual = 8.16137e-05, Final residual = 9.19733e-06, No Iterations 4
smoothSolver:  Solving for Uy, Initial residual = 0.000101732, Final residual = 6.62961e-06, No Iterations 5
DICPCG:  Solving for p, Initial residual = 0.00019736, Final residual = 8.72586e-06, No Iterations 175
time step continuity errors : sum local = 1.23021e-09, global = -7.77857e-21, cumulative = 5.65727e-18
DICPCG:  Solving for p, Initial residual = 0.000187465, Final residual = 9.78534e-07, No Iterations 194
time step continuity errors : sum local = 1.38181e-10, global = 3.64402e-20, cumulative = 5.69371e-18
ExecutionTime = 129.06 s  ClockTime = 130 s

Time = 0.49

Courant Number mean: 0.222638 max: 0.98063
smoothSolver:  Solving for Ux, Initial residual = 8.1375e-05, Final residual = 9.17032e-06, No Iterations 4
smoothSolver:  Solving for Uy, Initial residual = 0.000101408, Final residual = 6.60862e-06, No Iterations 5
DICPCG:  Solving for p, Initial residual = 0.000194265, Final residual = 8.96722e-06, No Iterations 154
time step continuity errors : sum local = 1.27426e-09, global = -5.20528e-20, cumulative = 5.64166e-18
DICPCG:  Solving for p, Initial residual = 0.000185506, Final residual = 9.7015e-07, No Iterations 190
time step continuity errors : sum local = 1.37041e-10, global = -1.84212e-19, cumulative = 5.45745e-18
ExecutionTime = 129.23 s  ClockTime = 130 s

Time = 0.490625

Courant Number mean: 0.222665 max: 0.980631
smoothSolver:  Solving for Ux, Initial residual = 8.11125e-05, Final residual = 9.14087e-06, No Iterations 4
smoothSolver:  Solving for Uy, Initial residual = 0.000101089, Final residual = 6.58769e-06, No Iterations 5
DICPCG:  Solving for p, Initial residual = 0.000196185, Final residual = 8.72173e-06, No Iterations 175
time step continuity errors : sum local = 1.22961e-09, global = 1.66734e-19, cumulative = 5.62418e-18
DICPCG:  Solving for p, Initial residual = 0.000186283, Final residual = 9.76878e-07, No Iterations 194
time step continuity errors : sum local = 1.37951e-10, global = 1.70644e-19, cumulative = 5.79483e-18
ExecutionTime = 129.41 s  ClockTime = 130 s

Time = 0.49125

Courant Number mean: 0.222692 max: 0.980632
smoothSolver:  Solving for Ux, Initial residual = 8.08751e-05, Final residual = 9.11401e-06, No Iterations 4
smoothSolver:  Solving for Uy, Initial residual = 0.000100767, Final residual = 6.56683e-06, No Iterations 5
DICPCG:  Solving for p, Initial residual = 0.000193118, Final residual = 8.82514e-06, No Iterations 154
time step continuity errors : sum local = 1.2543e-09, global = 8.67864e-20, cumulative = 5.88161e-18
DICPCG:  Solving for p, Initial residual = 0.000184401, Final residual = 9.60954e-07, No Iterations 190
time step continuity errors : sum local = 1.35755e-10, global = -4.21509e-20, cumulative = 5.83946e-18
ExecutionTime = 129.57 s  ClockTime = 130 s

Time = 0.491875

Courant Number mean: 0.222719 max: 0.980633
smoothSolver:  Solving for Ux, Initial residual = 8.0614e-05, Final residual = 9.08472e-06, No Iterations 4
smoothSolver:  Solving for Uy, Initial residual = 0.00010045, Final residual = 6.54604e-06, No Iterations 5
DICPCG:  Solving for p, Initial residual = 0.000194927, Final residual = 8.69994e-06, No Iterations 175
time step continuity errors : sum local = 1.22659e-09, global = -3.529e-20, cumulative = 5.80417e-18
DICPCG:  Solving for p, Initial residual = 0.000185148, Final residual = 9.85521e-07, No Iterations 194
time step continuity errors : sum local = 1.39172e-10, global = -4.61472e-20, cumulative = 5.75802e-18
ExecutionTime = 129.75 s  ClockTime = 130 s

Time = 0.4925

Courant Number mean: 0.222746 max: 0.980634
smoothSolver:  Solving for Ux, Initial residual = 8.0378e-05, Final residual = 9.05801e-06, No Iterations 4
smoothSolver:  Solving for Uy, Initial residual = 0.00010013, Final residual = 6.52532e-06, No Iterations 5
DICPCG:  Solving for p, Initial residual = 0.000191876, Final residual = 8.93917e-06, No Iterations 154
time step continuity errors : sum local = 1.27033e-09, global = -2.85384e-20, cumulative = 5.72949e-18
DICPCG:  Solving for p, Initial residual = 0.000183229, Final residual = 9.63475e-07, No Iterations 190
time step continuity errors : sum local = 1.36115e-10, global = -5.26358e-21, cumulative = 5.72422e-18
ExecutionTime = 129.92 s  ClockTime = 131 s

Time = 0.493125

Courant Number mean: 0.222772 max: 0.980635
smoothSolver:  Solving for Ux, Initial residual = 8.01186e-05, Final residual = 9.02891e-06, No Iterations 4
smoothSolver:  Solving for Uy, Initial residual = 9.98157e-05, Final residual = 6.50468e-06, No Iterations 5
DICPCG:  Solving for p, Initial residual = 0.00019377, Final residual = 8.67827e-06, No Iterations 175
time step continuity errors : sum local = 1.22353e-09, global = -1.62795e-19, cumulative = 5.56143e-18
DICPCG:  Solving for p, Initial residual = 0.000184002, Final residual = 9.87134e-07, No Iterations 194
time step continuity errors : sum local = 1.39406e-10, global = -9.51892e-20, cumulative = 5.46624e-18
ExecutionTime = 130.09 s  ClockTime = 131 s

Time = 0.49375

Courant Number mean: 0.222799 max: 0.980636
smoothSolver:  Solving for Ux, Initial residual = 7.98839e-05, Final residual = 9.00234e-06, No Iterations 4
smoothSolver:  Solving for Uy, Initial residual = 9.94977e-05, Final residual = 6.48408e-06, No Iterations 5
DICPCG:  Solving for p, Initial residual = 0.00019074, Final residual = 8.81246e-06, No Iterations 154
time step continuity errors : sum local = 1.25251e-09, global = -4.76849e-20, cumulative = 5.41855e-18
DICPCG:  Solving for p, Initial residual = 0.000182117, Final residual = 9.61322e-07, No Iterations 190
time step continuity errors : sum local = 1.3582e-10, global = -1.61677e-19, cumulative = 5.25687e-18
ExecutionTime = 130.26 s  ClockTime = 131 s

Time = 0.494375

Courant Number mean: 0.222825 max: 0.980637
smoothSolver:  Solving for Ux, Initial residual = 7.9626e-05, Final residual = 8.97341e-06, No Iterations 4
smoothSolver:  Solving for Uy, Initial residual = 9.91852e-05, Final residual = 6.46357e-06, No Iterations 5
DICPCG:  Solving for p, Initial residual = 0.000192529, Final residual = 8.62996e-06, No Iterations 175
time step continuity errors : sum local = 1.21676e-09, global = 2.07867e-21, cumulative = 5.25895e-18
DICPCG:  Solving for p, Initial residual = 0.000182888, Final residual = 9.9097e-07, No Iterations 194
time step continuity errors : sum local = 1.39946e-10, global = 3.12822e-20, cumulative = 5.29024e-18
ExecutionTime = 130.44 s  ClockTime = 131 s

Time = 0.495

Courant Number mean: 0.222852 max: 0.980638
smoothSolver:  Solving for Ux, Initial residual = 7.93926e-05, Final residual = 8.947e-06, No Iterations 4
smoothSolver:  Solving for Uy, Initial residual = 9.88694e-05, Final residual = 6.44312e-06, No Iterations 5
DICPCG:  Solving for p, Initial residual = 0.000189514, Final residual = 8.83445e-06, No Iterations 154
time step continuity errors : sum local = 1.25556e-09, global = 4.86021e-20, cumulative = 5.33884e-18
DICPCG:  Solving for p, Initial residual = 0.000180964, Final residual = 9.59027e-07, No Iterations 190
time step continuity errors : sum local = 1.35502e-10, global = 1.3149e-19, cumulative = 5.47033e-18
ExecutionTime = 130.6 s  ClockTime = 131 s

Time = 0.495625

Courant Number mean: 0.222878 max: 0.980639
smoothSolver:  Solving for Ux, Initial residual = 7.91364e-05, Final residual = 8.91825e-06, No Iterations 4
smoothSolver:  Solving for Uy, Initial residual = 9.85591e-05, Final residual = 6.42276e-06, No Iterations 5
DICPCG:  Solving for p, Initial residual = 0.000191381, Final residual = 8.62895e-06, No Iterations 175
time step continuity errors : sum local = 1.2166e-09, global = -4.18835e-20, cumulative = 5.42844e-18
DICPCG:  Solving for p, Initial residual = 0.000181743, Final residual = 9.93433e-07, No Iterations 194
time step continuity errors : sum local = 1.40298e-10, global = -7.94091e-20, cumulative = 5.34904e-18
ExecutionTime = 130.79 s  ClockTime = 132 s

Time = 0.49625

Courant Number mean: 0.222905 max: 0.98064
smoothSolver:  Solving for Ux, Initial residual = 7.89043e-05, Final residual = 8.89198e-06, No Iterations 4
smoothSolver:  Solving for Uy, Initial residual = 9.82451e-05, Final residual = 6.40242e-06, No Iterations 5
DICPCG:  Solving for p, Initial residual = 0.000188396, Final residual = 8.793e-06, No Iterations 154
time step continuity errors : sum local = 1.24976e-09, global = 1.42076e-19, cumulative = 5.49111e-18
DICPCG:  Solving for p, Initial residual = 0.000179863, Final residual = 9.55909e-07, No Iterations 190
time step continuity errors : sum local = 1.35071e-10, global = 4.65165e-21, cumulative = 5.49576e-18
ExecutionTime = 130.95 s  ClockTime = 132 s

Time = 0.496875

Courant Number mean: 0.222931 max: 0.980642
smoothSolver:  Solving for Ux, Initial residual = 7.86495e-05, Final residual = 8.86339e-06, No Iterations 4
smoothSolver:  Solving for Uy, Initial residual = 9.79368e-05, Final residual = 6.38219e-06, No Iterations 5
DICPCG:  Solving for p, Initial residual = 0.000190158, Final residual = 8.57887e-06, No Iterations 175
time step continuity errors : sum local = 1.2096e-09, global = -1.43028e-20, cumulative = 5.48146e-18
DICPCG:  Solving for p, Initial residual = 0.000180647, Final residual = 9.97735e-07, No Iterations 194
time step continuity errors : sum local = 1.40907e-10, global = -7.69422e-20, cumulative = 5.40452e-18
ExecutionTime = 131.13 s  ClockTime = 132 s

Time = 0.4975

Courant Number mean: 0.222957 max: 0.980643
smoothSolver:  Solving for Ux, Initial residual = 7.84188e-05, Final residual = 8.83728e-06, No Iterations 4
smoothSolver:  Solving for Uy, Initial residual = 9.7625e-05, Final residual = 6.36199e-06, No Iterations 5
DICPCG:  Solving for p, Initial residual = 0.000187181, Final residual = 8.72943e-06, No Iterations 154
time step continuity errors : sum local = 1.24076e-09, global = 6.42824e-20, cumulative = 5.4688e-18
DICPCG:  Solving for p, Initial residual = 0.000178764, Final residual = 9.61017e-07, No Iterations 190
time step continuity errors : sum local = 1.35795e-10, global = -7.45948e-20, cumulative = 5.39421e-18
ExecutionTime = 131.29 s  ClockTime = 132 s

Time = 0.498125

Courant Number mean: 0.222983 max: 0.980644
smoothSolver:  Solving for Ux, Initial residual = 7.81656e-05, Final residual = 8.80888e-06, No Iterations 4
smoothSolver:  Solving for Uy, Initial residual = 9.73188e-05, Final residual = 6.34191e-06, No Iterations 5
DICPCG:  Solving for p, Initial residual = 0.000189017, Final residual = 8.54868e-06, No Iterations 175
time step continuity errors : sum local = 1.20533e-09, global = -6.60734e-21, cumulative = 5.3876e-18
DICPCG:  Solving for p, Initial residual = 0.000179511, Final residual = 9.7551e-07, No Iterations 196
time step continuity errors : sum local = 1.37733e-10, global = -1.29436e-19, cumulative = 5.25816e-18
ExecutionTime = 131.47 s  ClockTime = 132 s

Time = 0.49875

Courant Number mean: 0.223009 max: 0.980645
smoothSolver:  Solving for Ux, Initial residual = 7.79362e-05, Final residual = 8.78291e-06, No Iterations 4
smoothSolver:  Solving for Uy, Initial residual = 9.70085e-05, Final residual = 6.32181e-06, No Iterations 5
DICPCG:  Solving for p, Initial residual = 0.000186017, Final residual = 8.55588e-06, No Iterations 154
time step continuity errors : sum local = 1.21624e-09, global = -9.2824e-20, cumulative = 5.16534e-18
DICPCG:  Solving for p, Initial residual = 0.000177535, Final residual = 9.59451e-07, No Iterations 190
time step continuity errors : sum local = 1.35593e-10, global = -6.7649e-20, cumulative = 5.09769e-18
ExecutionTime = 131.63 s  ClockTime = 132 s

Time = 0.499375

Courant Number mean: 0.223035 max: 0.980646
smoothSolver:  Solving for Ux, Initial residual = 7.76842e-05, Final residual = 8.75465e-06, No Iterations 4
smoothSolver:  Solving for Uy, Initial residual = 9.67048e-05, Final residual = 6.30188e-06, No Iterations 5
DICPCG:  Solving for p, Initial residual = 0.00018773, Final residual = 8.48639e-06, No Iterations 175
time step continuity errors : sum local = 1.19661e-09, global = 1.09851e-19, cumulative = 5.20754e-18
DICPCG:  Solving for p, Initial residual = 0.000178337, Final residual = 9.95926e-07, No Iterations 194
time step continuity errors : sum local = 1.40663e-10, global = -1.00504e-19, cumulative = 5.10704e-18
ExecutionTime = 131.81 s  ClockTime = 133 s

Time = 0.5

Courant Number mean: 0.223061 max: 0.980647
smoothSolver:  Solving for Ux, Initial residual = 7.74564e-05, Final residual = 8.72886e-06, No Iterations 4
smoothSolver:  Solving for Uy, Initial residual = 9.63967e-05, Final residual = 6.28193e-06, No Iterations 5
DICPCG:  Solving for p, Initial residual = 0.000184917, Final residual = 8.71315e-06, No Iterations 154
time step continuity errors : sum local = 1.23845e-09, global = -2.21675e-20, cumulative = 5.08487e-18
DICPCG:  Solving for p, Initial residual = 0.0001766, Final residual = 9.56048e-07, No Iterations 190
time step continuity errors : sum local = 1.35106e-10, global = -5.23726e-20, cumulative = 5.0325e-18
ExecutionTime = 132.04 s  ClockTime = 133 s

End

