/*---------------------------------------------------------------------------*\
  =========                 |
  \\      /  F ield         | OpenFOAM: The Open Source CFD Toolbox
   \\    /   O peration     | Website:  https://openfoam.org
    \\  /    A nd           | Version:  7
     \\/     M anipulation  |
\*---------------------------------------------------------------------------*/
Build  : 7
Exec   : icoFoam
Date   : Feb 21 2024
Time   : 16:40:40
Host   : "c201-017.frontera.tacc.utexas.edu"
PID    : 126388
I/O    : uncollated
Case   : /work2/09042/mihiro10/frontera/COE-347-SP24/mainclassrepo/OpenFOAM/v7/cavity/cavity_160x160_re50
nProcs : 1
sigFpe : Enabling floating point exception trapping (FOAM_SIGFPE).
fileModificationChecking : Monitoring run-time modified files using timeStampMaster (fileModificationSkew 10)
allowSystemOperations : Allowing user-supplied system call operations

// * * * * * * * * * * * * * * * * * * * * * * * * * * * * * * * * * * * * * //
Create time

Create mesh for time = 0

Reading transportProperties

Reading field p

Reading field U

Reading/calculating face flux field phi


Starting time loop

Time = 0.000625

Courant Number mean: 0 max: 0
smoothSolver:  Solving for Ux, Initial residual = 1, Final residual = 8.80639e-06, No Iterations 30
smoothSolver:  Solving for Uy, Initial residual = 0, Final residual = 0, No Iterations 0
DICPCG:  Solving for p, Initial residual = 1, Final residual = 0.0481515, No Iterations 200
time step continuity errors : sum local = 6.48502e-06, global = 9.72971e-21, cumulative = 9.72971e-21
DICPCG:  Solving for p, Initial residual = 0.592777, Final residual = 8.12371e-07, No Iterations 283
time step continuity errors : sum local = 1.83035e-10, global = 1.91953e-20, cumulative = 2.8925e-20
ExecutionTime = 0.4 s  ClockTime = 0 s

Time = 0.00125

Courant Number mean: 0.0242798 max: 0.718726
smoothSolver:  Solving for Ux, Initial residual = 0.162242, Final residual = 8.35075e-06, No Iterations 31
smoothSolver:  Solving for Uy, Initial residual = 0.326497, Final residual = 9.01478e-06, No Iterations 35
DICPCG:  Solving for p, Initial residual = 0.531165, Final residual = 0.0232868, No Iterations 192
time step continuity errors : sum local = 4.90523e-06, global = 2.25407e-21, cumulative = 3.11791e-20
DICPCG:  Solving for p, Initial residual = 0.44304, Final residual = 9.41872e-07, No Iterations 268
time step continuity errors : sum local = 2.1036e-10, global = -2.46407e-20, cumulative = 6.53841e-21
ExecutionTime = 0.66 s  ClockTime = 0 s

Time = 0.001875

Courant Number mean: 0.0370769 max: 0.85061
smoothSolver:  Solving for Ux, Initial residual = 0.0664709, Final residual = 9.49346e-06, No Iterations 28
smoothSolver:  Solving for Uy, Initial residual = 0.128955, Final residual = 9.4873e-06, No Iterations 32
DICPCG:  Solving for p, Initial residual = 0.32072, Final residual = 0.0151919, No Iterations 88
time step continuity errors : sum local = 2.74472e-06, global = -2.2171e-20, cumulative = -1.56326e-20
DICPCG:  Solving for p, Initial residual = 0.281543, Final residual = 9.14447e-07, No Iterations 268
time step continuity errors : sum local = 1.51794e-10, global = 4.28809e-21, cumulative = -1.13445e-20
ExecutionTime = 0.87 s  ClockTime = 0 s

Time = 0.0025

Courant Number mean: 0.0456873 max: 0.887993
smoothSolver:  Solving for Ux, Initial residual = 0.0421747, Final residual = 8.91306e-06, No Iterations 27
smoothSolver:  Solving for Uy, Initial residual = 0.0862866, Final residual = 8.7125e-06, No Iterations 31
DICPCG:  Solving for p, Initial residual = 0.166556, Final residual = 0.00828919, No Iterations 186
time step continuity errors : sum local = 1.25769e-06, global = -2.39616e-20, cumulative = -3.53061e-20
DICPCG:  Solving for p, Initial residual = 0.136802, Final residual = 9.25111e-07, No Iterations 251
time step continuity errors : sum local = 1.49852e-10, global = 7.10855e-21, cumulative = -2.81976e-20
ExecutionTime = 1.11 s  ClockTime = 1 s

Time = 0.003125

Courant Number mean: 0.0525153 max: 0.905851
smoothSolver:  Solving for Ux, Initial residual = 0.0324416, Final residual = 7.52935e-06, No Iterations 27
smoothSolver:  Solving for Uy, Initial residual = 0.0598079, Final residual = 8.33424e-06, No Iterations 30
DICPCG:  Solving for p, Initial residual = 0.095559, Final residual = 0.00449405, No Iterations 187
time step continuity errors : sum local = 6.43856e-07, global = -7.67501e-21, cumulative = -3.58726e-20
DICPCG:  Solving for p, Initial residual = 0.0835084, Final residual = 9.58971e-07, No Iterations 260
time step continuity errors : sum local = 1.38954e-10, global = -2.9045e-20, cumulative = -6.49176e-20
ExecutionTime = 1.37 s  ClockTime = 1 s

Time = 0.00375

Courant Number mean: 0.0582509 max: 0.916825
smoothSolver:  Solving for Ux, Initial residual = 0.0260553, Final residual = 8.64241e-06, No Iterations 26
smoothSolver:  Solving for Uy, Initial residual = 0.0469852, Final residual = 8.98492e-06, No Iterations 29
DICPCG:  Solving for p, Initial residual = 0.0579472, Final residual = 0.00259548, No Iterations 93
time step continuity errors : sum local = 4.01538e-07, global = -3.70668e-20, cumulative = -1.01984e-19
DICPCG:  Solving for p, Initial residual = 0.0514803, Final residual = 8.97421e-07, No Iterations 259
time step continuity errors : sum local = 1.25581e-10, global = -8.1776e-21, cumulative = -1.10162e-19
ExecutionTime = 1.57 s  ClockTime = 1 s

Time = 0.004375

Courant Number mean: 0.0632447 max: 0.924472
smoothSolver:  Solving for Ux, Initial residual = 0.0217461, Final residual = 7.48691e-06, No Iterations 26
smoothSolver:  Solving for Uy, Initial residual = 0.0392728, Final residual = 7.59156e-06, No Iterations 29
DICPCG:  Solving for p, Initial residual = 0.0466612, Final residual = 0.00224378, No Iterations 186
time step continuity errors : sum local = 3.12052e-07, global = -3.72441e-20, cumulative = -1.47406e-19
DICPCG:  Solving for p, Initial residual = 0.0412453, Final residual = 8.68494e-07, No Iterations 258
time step continuity errors : sum local = 1.22398e-10, global = -5.40706e-20, cumulative = -2.01477e-19
ExecutionTime = 1.81 s  ClockTime = 1 s

Time = 0.005

Courant Number mean: 0.0676953 max: 0.930187
smoothSolver:  Solving for Ux, Initial residual = 0.0189033, Final residual = 9.13677e-06, No Iterations 25
smoothSolver:  Solving for Uy, Initial residual = 0.0329287, Final residual = 8.62857e-06, No Iterations 28
DICPCG:  Solving for p, Initial residual = 0.0363723, Final residual = 0.00163226, No Iterations 188
time step continuity errors : sum local = 2.26407e-07, global = 5.90117e-20, cumulative = -1.42465e-19
DICPCG:  Solving for p, Initial residual = 0.032532, Final residual = 8.54689e-07, No Iterations 257
time step continuity errors : sum local = 1.18667e-10, global = 3.54272e-20, cumulative = -1.07038e-19
ExecutionTime = 2.06 s  ClockTime = 2 s

Time = 0.005625

Courant Number mean: 0.0717197 max: 0.934671
smoothSolver:  Solving for Ux, Initial residual = 0.0166214, Final residual = 8.25742e-06, No Iterations 25
smoothSolver:  Solving for Uy, Initial residual = 0.0286073, Final residual = 7.56401e-06, No Iterations 28
DICPCG:  Solving for p, Initial residual = 0.0302976, Final residual = 0.00147441, No Iterations 93
time step continuity errors : sum local = 2.27014e-07, global = -8.1495e-20, cumulative = -1.88533e-19
DICPCG:  Solving for p, Initial residual = 0.0273616, Final residual = 9.85801e-07, No Iterations 247
time step continuity errors : sum local = 1.37164e-10, global = 9.94192e-20, cumulative = -8.91135e-20
ExecutionTime = 2.26 s  ClockTime = 2 s

Time = 0.00625

Courant Number mean: 0.0753994 max: 0.938309
smoothSolver:  Solving for Ux, Initial residual = 0.0147729, Final residual = 7.48851e-06, No Iterations 25
smoothSolver:  Solving for Uy, Initial residual = 0.0255535, Final residual = 9.10429e-06, No Iterations 27
DICPCG:  Solving for p, Initial residual = 0.0287664, Final residual = 0.00132303, No Iterations 186
time step continuity errors : sum local = 1.83976e-07, global = 5.92242e-21, cumulative = -8.31911e-20
DICPCG:  Solving for p, Initial residual = 0.0258205, Final residual = 9.64568e-07, No Iterations 255
time step continuity errors : sum local = 1.35094e-10, global = -3.66789e-20, cumulative = -1.1987e-19
ExecutionTime = 2.49 s  ClockTime = 2 s

Time = 0.006875

Courant Number mean: 0.0788048 max: 0.941333
smoothSolver:  Solving for Ux, Initial residual = 0.0134188, Final residual = 9.39165e-06, No Iterations 24
smoothSolver:  Solving for Uy, Initial residual = 0.0226406, Final residual = 8.11385e-06, No Iterations 27
DICPCG:  Solving for p, Initial residual = 0.0243224, Final residual = 0.00119437, No Iterations 94
time step continuity errors : sum local = 1.98649e-07, global = 3.29375e-20, cumulative = -8.69326e-20
DICPCG:  Solving for p, Initial residual = 0.0218442, Final residual = 9.88136e-07, No Iterations 251
time step continuity errors : sum local = 1.37536e-10, global = 1.02989e-19, cumulative = 1.60569e-20
ExecutionTime = 2.69 s  ClockTime = 2 s

Time = 0.0075

Courant Number mean: 0.0819651 max: 0.943902
smoothSolver:  Solving for Ux, Initial residual = 0.0121416, Final residual = 8.60212e-06, No Iterations 24
smoothSolver:  Solving for Uy, Initial residual = 0.020857, Final residual = 7.49035e-06, No Iterations 27
DICPCG:  Solving for p, Initial residual = 0.0245954, Final residual = 0.00117848, No Iterations 180
time step continuity errors : sum local = 1.64113e-07, global = -2.29129e-20, cumulative = -6.85599e-21
DICPCG:  Solving for p, Initial residual = 0.021938, Final residual = 9.3604e-07, No Iterations 246
time step continuity errors : sum local = 1.32369e-10, global = -2.33491e-20, cumulative = -3.02051e-20
ExecutionTime = 2.93 s  ClockTime = 2 s

Time = 0.008125

Courant Number mean: 0.0849298 max: 0.946117
smoothSolver:  Solving for Ux, Initial residual = 0.0112504, Final residual = 8.1211e-06, No Iterations 24
smoothSolver:  Solving for Uy, Initial residual = 0.0187174, Final residual = 9.06106e-06, No Iterations 26
DICPCG:  Solving for p, Initial residual = 0.0207349, Final residual = 0.00101174, No Iterations 186
time step continuity errors : sum local = 1.4079e-07, global = 8.70045e-20, cumulative = 5.67995e-20
DICPCG:  Solving for p, Initial residual = 0.0186139, Final residual = 8.68981e-07, No Iterations 244
time step continuity errors : sum local = 1.20974e-10, global = -1.5564e-20, cumulative = 4.12354e-20
ExecutionTime = 3.15 s  ClockTime = 3 s

Time = 0.00875

Courant Number mean: 0.0877144 max: 0.948057
smoothSolver:  Solving for Ux, Initial residual = 0.0103853, Final residual = 7.59681e-06, No Iterations 24
smoothSolver:  Solving for Uy, Initial residual = 0.017188, Final residual = 8.36252e-06, No Iterations 26
DICPCG:  Solving for p, Initial residual = 0.0183681, Final residual = 0.00086754, No Iterations 92
time step continuity errors : sum local = 1.30253e-07, global = 6.10009e-20, cumulative = 1.02236e-19
DICPCG:  Solving for p, Initial residual = 0.0166632, Final residual = 8.70282e-07, No Iterations 245
time step continuity errors : sum local = 1.21278e-10, global = -4.838e-20, cumulative = 5.38563e-20
ExecutionTime = 3.35 s  ClockTime = 3 s

Time = 0.009375

Courant Number mean: 0.0903454 max: 0.949768
smoothSolver:  Solving for Ux, Initial residual = 0.00962447, Final residual = 9.58858e-06, No Iterations 23
smoothSolver:  Solving for Uy, Initial residual = 0.0159971, Final residual = 7.79803e-06, No Iterations 26
DICPCG:  Solving for p, Initial residual = 0.0175348, Final residual = 0.000829418, No Iterations 184
time step continuity errors : sum local = 1.15725e-07, global = -4.53486e-20, cumulative = 8.50765e-21
DICPCG:  Solving for p, Initial residual = 0.0158784, Final residual = 8.69227e-07, No Iterations 251
time step continuity errors : sum local = 1.21471e-10, global = 1.57806e-20, cumulative = 2.42882e-20
ExecutionTime = 3.58 s  ClockTime = 3 s

Time = 0.01

Courant Number mean: 0.092842 max: 0.951295
smoothSolver:  Solving for Ux, Initial residual = 0.00902081, Final residual = 9.08957e-06, No Iterations 23
smoothSolver:  Solving for Uy, Initial residual = 0.0147903, Final residual = 9.69414e-06, No Iterations 25
DICPCG:  Solving for p, Initial residual = 0.0157128, Final residual = 0.000750287, No Iterations 92
time step continuity errors : sum local = 1.2055e-07, global = 4.19423e-20, cumulative = 6.62305e-20
DICPCG:  Solving for p, Initial residual = 0.0142052, Final residual = 9.23159e-07, No Iterations 245
time step continuity errors : sum local = 1.28786e-10, global = 4.81911e-20, cumulative = 1.14422e-19
ExecutionTime = 3.77 s  ClockTime = 3 s

Time = 0.010625

Courant Number mean: 0.0952101 max: 0.952666
smoothSolver:  Solving for Ux, Initial residual = 0.00841512, Final residual = 8.53464e-06, No Iterations 23
smoothSolver:  Solving for Uy, Initial residual = 0.0139759, Final residual = 9.16624e-06, No Iterations 25
DICPCG:  Solving for p, Initial residual = 0.0160677, Final residual = 0.000763019, No Iterations 182
time step continuity errors : sum local = 1.0637e-07, global = -2.5956e-20, cumulative = 8.84656e-20
DICPCG:  Solving for p, Initial residual = 0.0145146, Final residual = 9.13709e-07, No Iterations 250
time step continuity errors : sum local = 1.28358e-10, global = -2.64509e-20, cumulative = 6.20148e-20
ExecutionTime = 4 s  ClockTime = 4 s

Time = 0.01125

Courant Number mean: 0.097475 max: 0.953909
smoothSolver:  Solving for Ux, Initial residual = 0.00796344, Final residual = 8.16136e-06, No Iterations 23
smoothSolver:  Solving for Uy, Initial residual = 0.0129731, Final residual = 8.5323e-06, No Iterations 25
DICPCG:  Solving for p, Initial residual = 0.0138721, Final residual = 0.000685945, No Iterations 185
time step continuity errors : sum local = 9.56847e-08, global = 7.49682e-20, cumulative = 1.36983e-19
DICPCG:  Solving for p, Initial residual = 0.012566, Final residual = 9.61513e-07, No Iterations 247
time step continuity errors : sum local = 1.33849e-10, global = 2.96985e-20, cumulative = 1.66682e-19
ExecutionTime = 4.24 s  ClockTime = 4 s

Time = 0.011875

Courant Number mean: 0.0996386 max: 0.955042
smoothSolver:  Solving for Ux, Initial residual = 0.00751102, Final residual = 7.75732e-06, No Iterations 23
smoothSolver:  Solving for Uy, Initial residual = 0.0122052, Final residual = 8.05052e-06, No Iterations 25
DICPCG:  Solving for p, Initial residual = 0.0128685, Final residual = 0.000573458, No Iterations 92
time step continuity errors : sum local = 8.55015e-08, global = 1.06139e-22, cumulative = 1.66788e-19
DICPCG:  Solving for p, Initial residual = 0.0117339, Final residual = 9.57417e-07, No Iterations 245
time step continuity errors : sum local = 1.33647e-10, global = -2.14759e-24, cumulative = 1.66786e-19
ExecutionTime = 4.43 s  ClockTime = 4 s

Time = 0.0125

Courant Number mean: 0.101708 max: 0.956079
smoothSolver:  Solving for Ux, Initial residual = 0.00709517, Final residual = 9.92616e-06, No Iterations 22
smoothSolver:  Solving for Uy, Initial residual = 0.0115771, Final residual = 7.64329e-06, No Iterations 25
DICPCG:  Solving for p, Initial residual = 0.0124486, Final residual = 0.000611126, No Iterations 181
time step continuity errors : sum local = 8.53803e-08, global = -3.48962e-20, cumulative = 1.31889e-19
DICPCG:  Solving for p, Initial residual = 0.0113351, Final residual = 9.1223e-07, No Iterations 243
time step continuity errors : sum local = 1.27519e-10, global = 7.09929e-20, cumulative = 2.02882e-19
ExecutionTime = 4.72 s  ClockTime = 4 s

Time = 0.013125

Courant Number mean: 0.103698 max: 0.957033
smoothSolver:  Solving for Ux, Initial residual = 0.00675449, Final residual = 9.51737e-06, No Iterations 22
smoothSolver:  Solving for Uy, Initial residual = 0.0109232, Final residual = 9.68146e-06, No Iterations 24
DICPCG:  Solving for p, Initial residual = 0.0115788, Final residual = 0.000547724, No Iterations 92
time step continuity errors : sum local = 8.71554e-08, global = -6.94548e-20, cumulative = 1.33427e-19
DICPCG:  Solving for p, Initial residual = 0.0104757, Final residual = 8.91269e-07, No Iterations 246
time step continuity errors : sum local = 1.24428e-10, global = -5.08278e-20, cumulative = 8.25996e-20
ExecutionTime = 4.91 s  ClockTime = 4 s

Time = 0.01375

Courant Number mean: 0.105612 max: 0.957915
smoothSolver:  Solving for Ux, Initial residual = 0.00639707, Final residual = 9.04587e-06, No Iterations 22
smoothSolver:  Solving for Uy, Initial residual = 0.0104654, Final residual = 9.27595e-06, No Iterations 24
DICPCG:  Solving for p, Initial residual = 0.011861, Final residual = 0.000572266, No Iterations 182
time step continuity errors : sum local = 7.99149e-08, global = 3.06787e-20, cumulative = 1.13278e-19
DICPCG:  Solving for p, Initial residual = 0.010717, Final residual = 9.33982e-07, No Iterations 245
time step continuity errors : sum local = 1.31231e-10, global = -2.89214e-20, cumulative = 8.4357e-20
ExecutionTime = 5.14 s  ClockTime = 5 s

Time = 0.014375

Courant Number mean: 0.107451 max: 0.958732
smoothSolver:  Solving for Ux, Initial residual = 0.00612508, Final residual = 8.72131e-06, No Iterations 22
smoothSolver:  Solving for Uy, Initial residual = 0.00988095, Final residual = 8.77273e-06, No Iterations 24
DICPCG:  Solving for p, Initial residual = 0.0104481, Final residual = 0.000495229, No Iterations 185
time step continuity errors : sum local = 6.92064e-08, global = 2.53609e-20, cumulative = 1.09718e-19
DICPCG:  Solving for p, Initial residual = 0.0094725, Final residual = 9.63256e-07, No Iterations 245
time step continuity errors : sum local = 1.34379e-10, global = -1.1852e-20, cumulative = 9.78659e-20
ExecutionTime = 5.37 s  ClockTime = 5 s

Time = 0.015

Courant Number mean: 0.109228 max: 0.959495
smoothSolver:  Solving for Ux, Initial residual = 0.00584771, Final residual = 8.36871e-06, No Iterations 22
smoothSolver:  Solving for Uy, Initial residual = 0.00941852, Final residual = 8.3792e-06, No Iterations 24
DICPCG:  Solving for p, Initial residual = 0.00982605, Final residual = 0.000435319, No Iterations 92
time step continuity errors : sum local = 6.47825e-08, global = -2.67447e-20, cumulative = 7.11211e-20
DICPCG:  Solving for p, Initial residual = 0.00898244, Final residual = 9.66734e-07, No Iterations 244
time step continuity errors : sum local = 1.35126e-10, global = 6.93788e-20, cumulative = 1.405e-19
ExecutionTime = 5.56 s  ClockTime = 5 s

Time = 0.015625

Courant Number mean: 0.110946 max: 0.960206
smoothSolver:  Solving for Ux, Initial residual = 0.00558462, Final residual = 8.02092e-06, No Iterations 22
smoothSolver:  Solving for Uy, Initial residual = 0.00903382, Final residual = 8.04071e-06, No Iterations 24
DICPCG:  Solving for p, Initial residual = 0.00971905, Final residual = 0.000455073, No Iterations 180
time step continuity errors : sum local = 6.3592e-08, global = 4.13789e-20, cumulative = 1.81879e-19
DICPCG:  Solving for p, Initial residual = 0.008822, Final residual = 9.18861e-07, No Iterations 232
time step continuity errors : sum local = 1.28783e-10, global = -6.04815e-20, cumulative = 1.21397e-19
ExecutionTime = 5.79 s  ClockTime = 5 s

Time = 0.01625

Courant Number mean: 0.112606 max: 0.960872
smoothSolver:  Solving for Ux, Initial residual = 0.00536429, Final residual = 7.74408e-06, No Iterations 22
smoothSolver:  Solving for Uy, Initial residual = 0.00862389, Final residual = 7.68312e-06, No Iterations 24
DICPCG:  Solving for p, Initial residual = 0.00890292, Final residual = 0.000433831, No Iterations 93
time step continuity errors : sum local = 6.93168e-08, global = 7.51212e-20, cumulative = 1.96519e-19
DICPCG:  Solving for p, Initial residual = 0.00808936, Final residual = 8.73137e-07, No Iterations 244
time step continuity errors : sum local = 1.22097e-10, global = -2.35394e-20, cumulative = 1.72979e-19
ExecutionTime = 5.98 s  ClockTime = 6 s

Time = 0.016875

Courant Number mean: 0.11421 max: 0.9615
smoothSolver:  Solving for Ux, Initial residual = 0.00512899, Final residual = 9.98131e-06, No Iterations 21
smoothSolver:  Solving for Uy, Initial residual = 0.00833713, Final residual = 9.95014e-06, No Iterations 23
DICPCG:  Solving for p, Initial residual = 0.00947611, Final residual = 0.000454873, No Iterations 184
time step continuity errors : sum local = 6.36949e-08, global = 7.4658e-20, cumulative = 2.47637e-19
DICPCG:  Solving for p, Initial residual = 0.0085984, Final residual = 8.58866e-07, No Iterations 243
time step continuity errors : sum local = 1.20864e-10, global = -6.19863e-20, cumulative = 1.85651e-19
ExecutionTime = 6.21 s  ClockTime = 6 s

Time = 0.0175

Courant Number mean: 0.115767 max: 0.962087
smoothSolver:  Solving for Ux, Initial residual = 0.00494844, Final residual = 9.6789e-06, No Iterations 21
smoothSolver:  Solving for Uy, Initial residual = 0.00794753, Final residual = 9.49576e-06, No Iterations 23
DICPCG:  Solving for p, Initial residual = 0.00844709, Final residual = 0.00037702, No Iterations 184
time step continuity errors : sum local = 5.28252e-08, global = -3.00237e-20, cumulative = 1.55627e-19
DICPCG:  Solving for p, Initial residual = 0.00777433, Final residual = 8.98826e-07, No Iterations 243
time step continuity errors : sum local = 1.25701e-10, global = -1.17504e-20, cumulative = 1.43877e-19
ExecutionTime = 6.44 s  ClockTime = 6 s

Time = 0.018125

Courant Number mean: 0.11728 max: 0.962645
smoothSolver:  Solving for Ux, Initial residual = 0.0047616, Final residual = 9.34724e-06, No Iterations 21
smoothSolver:  Solving for Uy, Initial residual = 0.00763955, Final residual = 9.14313e-06, No Iterations 23
DICPCG:  Solving for p, Initial residual = 0.00775328, Final residual = 0.000340489, No Iterations 92
time step continuity errors : sum local = 5.05465e-08, global = 9.78762e-20, cumulative = 2.41753e-19
DICPCG:  Solving for p, Initial residual = 0.00711711, Final residual = 9.92563e-07, No Iterations 242
time step continuity errors : sum local = 1.38927e-10, global = 5.67519e-20, cumulative = 2.98505e-19
ExecutionTime = 6.63 s  ClockTime = 6 s

Time = 0.01875

Courant Number mean: 0.118746 max: 0.96317
smoothSolver:  Solving for Ux, Initial residual = 0.00457928, Final residual = 9.0106e-06, No Iterations 21
smoothSolver:  Solving for Uy, Initial residual = 0.00737949, Final residual = 8.83411e-06, No Iterations 23
DICPCG:  Solving for p, Initial residual = 0.00798378, Final residual = 0.000389235, No Iterations 95
time step continuity errors : sum local = 6.55644e-08, global = -1.36236e-20, cumulative = 2.84881e-19
DICPCG:  Solving for p, Initial residual = 0.00719612, Final residual = 8.71211e-07, No Iterations 241
time step continuity errors : sum local = 1.21994e-10, global = -9.67128e-21, cumulative = 2.7521e-19
ExecutionTime = 6.82 s  ClockTime = 6 s

Time = 0.019375

Courant Number mean: 0.120169 max: 0.963668
smoothSolver:  Solving for Ux, Initial residual = 0.00447067, Final residual = 8.82793e-06, No Iterations 21
smoothSolver:  Solving for Uy, Initial residual = 0.00706107, Final residual = 8.43654e-06, No Iterations 23
DICPCG:  Solving for p, Initial residual = 0.00845241, Final residual = 0.000422464, No Iterations 186
time step continuity errors : sum local = 5.93819e-08, global = -1.9802e-20, cumulative = 2.55408e-19
DICPCG:  Solving for p, Initial residual = 0.00772347, Final residual = 8.36478e-07, No Iterations 244
time step continuity errors : sum local = 1.17853e-10, global = 4.22646e-20, cumulative = 2.97673e-19
ExecutionTime = 7.04 s  ClockTime = 7 s

Time = 0.02

Courant Number mean: 0.121555 max: 0.964143
smoothSolver:  Solving for Ux, Initial residual = 0.00427464, Final residual = 8.45994e-06, No Iterations 21
smoothSolver:  Solving for Uy, Initial residual = 0.0068618, Final residual = 8.22075e-06, No Iterations 23
DICPCG:  Solving for p, Initial residual = 0.00760686, Final residual = 0.000356175, No Iterations 92
time step continuity errors : sum local = 5.49997e-08, global = -8.55358e-20, cumulative = 2.12137e-19
DICPCG:  Solving for p, Initial residual = 0.00696299, Final residual = 9.54784e-07, No Iterations 241
time step continuity errors : sum local = 1.33792e-10, global = 6.82885e-20, cumulative = 2.80425e-19
ExecutionTime = 7.23 s  ClockTime = 7 s

Time = 0.020625

Courant Number mean: 0.122906 max: 0.964592
smoothSolver:  Solving for Ux, Initial residual = 0.00414717, Final residual = 8.23382e-06, No Iterations 21
smoothSolver:  Solving for Uy, Initial residual = 0.0066054, Final residual = 7.91171e-06, No Iterations 23
DICPCG:  Solving for p, Initial residual = 0.00737326, Final residual = 0.000351425, No Iterations 178
time step continuity errors : sum local = 4.93841e-08, global = -7.26551e-20, cumulative = 2.0777e-19
DICPCG:  Solving for p, Initial residual = 0.00669697, Final residual = 9.79763e-07, No Iterations 241
time step continuity errors : sum local = 1.37725e-10, global = -6.73349e-20, cumulative = 1.40435e-19
ExecutionTime = 7.45 s  ClockTime = 7 s

Time = 0.02125

Courant Number mean: 0.124221 max: 0.96502
smoothSolver:  Solving for Ux, Initial residual = 0.00399725, Final residual = 7.95605e-06, No Iterations 21
smoothSolver:  Solving for Uy, Initial residual = 0.00641134, Final residual = 7.69247e-06, No Iterations 23
DICPCG:  Solving for p, Initial residual = 0.00672928, Final residual = 0.000309492, No Iterations 92
time step continuity errors : sum local = 4.45406e-08, global = -9.22533e-20, cumulative = 4.81819e-20
DICPCG:  Solving for p, Initial residual = 0.00610041, Final residual = 8.77493e-07, No Iterations 240
time step continuity errors : sum local = 1.23068e-10, global = -1.69405e-20, cumulative = 3.12415e-20
ExecutionTime = 7.65 s  ClockTime = 7 s

Time = 0.021875

Courant Number mean: 0.125501 max: 0.965428
smoothSolver:  Solving for Ux, Initial residual = 0.00386979, Final residual = 7.72265e-06, No Iterations 21
smoothSolver:  Solving for Uy, Initial residual = 0.00619863, Final residual = 9.96587e-06, No Iterations 22
DICPCG:  Solving for p, Initial residual = 0.00672101, Final residual = 0.000326879, No Iterations 178
time step continuity errors : sum local = 4.58848e-08, global = -5.89497e-20, cumulative = -2.77083e-20
DICPCG:  Solving for p, Initial residual = 0.00606491, Final residual = 8.38488e-07, No Iterations 240
time step continuity errors : sum local = 1.17572e-10, global = -1.26309e-20, cumulative = -4.03391e-20
ExecutionTime = 7.87 s  ClockTime = 7 s

Time = 0.0225

Courant Number mean: 0.126747 max: 0.965819
smoothSolver:  Solving for Ux, Initial residual = 0.00374796, Final residual = 7.49593e-06, No Iterations 21
smoothSolver:  Solving for Uy, Initial residual = 0.00601454, Final residual = 9.67564e-06, No Iterations 22
DICPCG:  Solving for p, Initial residual = 0.0061423, Final residual = 0.000292572, No Iterations 92
time step continuity errors : sum local = 4.31361e-08, global = 6.07632e-20, cumulative = 2.04241e-20
DICPCG:  Solving for p, Initial residual = 0.00559105, Final residual = 9.26679e-07, No Iterations 228
time step continuity errors : sum local = 1.30092e-10, global = -2.45237e-20, cumulative = -4.09967e-21
ExecutionTime = 8.06 s  ClockTime = 8 s

Time = 0.023125

Courant Number mean: 0.127967 max: 0.966193
smoothSolver:  Solving for Ux, Initial residual = 0.00362919, Final residual = 9.77094e-06, No Iterations 20
smoothSolver:  Solving for Uy, Initial residual = 0.00584506, Final residual = 9.40523e-06, No Iterations 22
DICPCG:  Solving for p, Initial residual = 0.00647845, Final residual = 0.000313803, No Iterations 94
time step continuity errors : sum local = 5.23005e-08, global = -7.30974e-20, cumulative = -7.71971e-20
DICPCG:  Solving for p, Initial residual = 0.00588945, Final residual = 8.51021e-07, No Iterations 239
time step continuity errors : sum local = 1.19451e-10, global = 1.87008e-20, cumulative = -5.84963e-20
ExecutionTime = 8.24 s  ClockTime = 8 s

Time = 0.02375

Courant Number mean: 0.129158 max: 0.96655
smoothSolver:  Solving for Ux, Initial residual = 0.00356024, Final residual = 9.60649e-06, No Iterations 20
smoothSolver:  Solving for Uy, Initial residual = 0.00563649, Final residual = 9.05232e-06, No Iterations 22
DICPCG:  Solving for p, Initial residual = 0.00665618, Final residual = 0.000319422, No Iterations 185
time step continuity errors : sum local = 4.49697e-08, global = -2.58011e-20, cumulative = -8.42974e-20
DICPCG:  Solving for p, Initial residual = 0.00608606, Final residual = 9.40151e-07, No Iterations 242
time step continuity errors : sum local = 1.32466e-10, global = -9.39235e-20, cumulative = -1.78221e-19
ExecutionTime = 8.47 s  ClockTime = 8 s

Time = 0.024375

Courant Number mean: 0.13032 max: 0.966893
smoothSolver:  Solving for Ux, Initial residual = 0.00342839, Final residual = 9.26538e-06, No Iterations 20
smoothSolver:  Solving for Uy, Initial residual = 0.0055061, Final residual = 8.86269e-06, No Iterations 22
DICPCG:  Solving for p, Initial residual = 0.00605624, Final residual = 0.000286134, No Iterations 92
time step continuity errors : sum local = 4.40172e-08, global = -2.56387e-20, cumulative = -2.0386e-19
DICPCG:  Solving for p, Initial residual = 0.00555682, Final residual = 8.92743e-07, No Iterations 239
time step continuity errors : sum local = 1.254e-10, global = 8.73672e-20, cumulative = -1.16492e-19
ExecutionTime = 8.66 s  ClockTime = 8 s

Time = 0.025

Courant Number mean: 0.131455 max: 0.967222
smoothSolver:  Solving for Ux, Initial residual = 0.00334154, Final residual = 9.05132e-06, No Iterations 20
smoothSolver:  Solving for Uy, Initial residual = 0.00533492, Final residual = 8.58385e-06, No Iterations 22
DICPCG:  Solving for p, Initial residual = 0.00600591, Final residual = 0.00029699, No Iterations 181
time step continuity errors : sum local = 4.17472e-08, global = -3.89022e-20, cumulative = -1.55395e-19
DICPCG:  Solving for p, Initial residual = 0.00548006, Final residual = 9.8345e-07, No Iterations 231
time step continuity errors : sum local = 1.38125e-10, global = 4.80459e-20, cumulative = -1.07349e-19
ExecutionTime = 8.95 s  ClockTime = 9 s

Time = 0.025625

Courant Number mean: 0.132564 max: 0.967538
smoothSolver:  Solving for Ux, Initial residual = 0.00323867, Final residual = 8.78718e-06, No Iterations 20
smoothSolver:  Solving for Uy, Initial residual = 0.00520442, Final residual = 8.38442e-06, No Iterations 22
DICPCG:  Solving for p, Initial residual = 0.00545738, Final residual = 0.000265005, No Iterations 91
time step continuity errors : sum local = 3.77713e-08, global = -1.55985e-20, cumulative = -1.22947e-19
DICPCG:  Solving for p, Initial residual = 0.00497117, Final residual = 9.97717e-07, No Iterations 238
time step continuity errors : sum local = 1.40055e-10, global = 8.95708e-20, cumulative = -3.33764e-20
ExecutionTime = 9.13 s  ClockTime = 9 s

Time = 0.02625

Courant Number mean: 0.133649 max: 0.967842
smoothSolver:  Solving for Ux, Initial residual = 0.00314999, Final residual = 8.56263e-06, No Iterations 20
smoothSolver:  Solving for Uy, Initial residual = 0.00506058, Final residual = 8.15432e-06, No Iterations 22
DICPCG:  Solving for p, Initial residual = 0.00555547, Final residual = 0.00025737, No Iterations 92
time step continuity errors : sum local = 4.14042e-08, global = 3.35181e-20, cumulative = 1.41685e-22
DICPCG:  Solving for p, Initial residual = 0.00517211, Final residual = 9.25346e-07, No Iterations 238
time step continuity errors : sum local = 1.30042e-10, global = -5.72297e-20, cumulative = -5.7088e-20
ExecutionTime = 9.32 s  ClockTime = 9 s

Time = 0.026875

Courant Number mean: 0.134714 max: 0.968134
smoothSolver:  Solving for Ux, Initial residual = 0.00305856, Final residual = 8.31642e-06, No Iterations 20
smoothSolver:  Solving for Uy, Initial residual = 0.00496412, Final residual = 7.99344e-06, No Iterations 22
DICPCG:  Solving for p, Initial residual = 0.00572068, Final residual = 0.000283282, No Iterations 186
time step continuity errors : sum local = 3.98203e-08, global = 7.79438e-20, cumulative = 2.08558e-20
DICPCG:  Solving for p, Initial residual = 0.00522613, Final residual = 9.76347e-07, No Iterations 237
time step continuity errors : sum local = 1.37577e-10, global = -6.74289e-20, cumulative = -4.65731e-20
ExecutionTime = 9.54 s  ClockTime = 9 s

Time = 0.0275

Courant Number mean: 0.135756 max: 0.968415
smoothSolver:  Solving for Ux, Initial residual = 0.00298814, Final residual = 8.14751e-06, No Iterations 20
smoothSolver:  Solving for Uy, Initial residual = 0.00480735, Final residual = 7.74477e-06, No Iterations 22
DICPCG:  Solving for p, Initial residual = 0.00522036, Final residual = 0.000243311, No Iterations 183
time step continuity errors : sum local = 3.41749e-08, global = 5.13521e-20, cumulative = 4.77898e-21
DICPCG:  Solving for p, Initial residual = 0.00476989, Final residual = 9.62673e-07, No Iterations 237
time step continuity errors : sum local = 1.3527e-10, global = -8.97651e-21, cumulative = -4.19752e-21
ExecutionTime = 9.77 s  ClockTime = 9 s

Time = 0.028125

Courant Number mean: 0.136775 max: 0.968688
smoothSolver:  Solving for Ux, Initial residual = 0.00291181, Final residual = 7.95231e-06, No Iterations 20
smoothSolver:  Solving for Uy, Initial residual = 0.00468492, Final residual = 7.55468e-06, No Iterations 22
DICPCG:  Solving for p, Initial residual = 0.00484215, Final residual = 0.00020936, No Iterations 92
time step continuity errors : sum local = 3.10886e-08, global = -1.22494e-19, cumulative = -1.26691e-19
DICPCG:  Solving for p, Initial residual = 0.00445302, Final residual = 8.2818e-07, No Iterations 239
time step continuity errors : sum local = 1.16447e-10, global = -5.18057e-20, cumulative = -1.78497e-19
ExecutionTime = 9.95 s  ClockTime = 10 s

Time = 0.02875

Courant Number mean: 0.137774 max: 0.96895
smoothSolver:  Solving for Ux, Initial residual = 0.00283459, Final residual = 7.74852e-06, No Iterations 20
smoothSolver:  Solving for Uy, Initial residual = 0.00457959, Final residual = 9.89294e-06, No Iterations 21
DICPCG:  Solving for p, Initial residual = 0.00507665, Final residual = 0.000246447, No Iterations 184
time step continuity errors : sum local = 3.46503e-08, global = -2.22071e-19, cumulative = -4.00568e-19
DICPCG:  Solving for p, Initial residual = 0.00463384, Final residual = 9.99188e-07, No Iterations 237
time step continuity errors : sum local = 1.40517e-10, global = -8.7668e-20, cumulative = -4.88236e-19
ExecutionTime = 10.18 s  ClockTime = 10 s

Time = 0.029375

Courant Number mean: 0.138751 max: 0.969203
smoothSolver:  Solving for Ux, Initial residual = 0.00276947, Final residual = 7.58487e-06, No Iterations 20
smoothSolver:  Solving for Uy, Initial residual = 0.00446121, Final residual = 9.63722e-06, No Iterations 21
DICPCG:  Solving for p, Initial residual = 0.00473327, Final residual = 0.000222776, No Iterations 92
time step continuity errors : sum local = 3.52772e-08, global = -1.01293e-19, cumulative = -5.89529e-19
DICPCG:  Solving for p, Initial residual = 0.00434365, Final residual = 8.48678e-07, No Iterations 239
time step continuity errors : sum local = 1.1937e-10, global = 8.57546e-20, cumulative = -5.03774e-19
ExecutionTime = 10.37 s  ClockTime = 10 s

Time = 0.03

Courant Number mean: 0.13971 max: 0.969448
smoothSolver:  Solving for Ux, Initial residual = 0.00269639, Final residual = 9.91777e-06, No Iterations 19
smoothSolver:  Solving for Uy, Initial residual = 0.00437992, Final residual = 9.45801e-06, No Iterations 21
DICPCG:  Solving for p, Initial residual = 0.00514482, Final residual = 0.000251278, No Iterations 185
time step continuity errors : sum local = 3.53552e-08, global = -5.33633e-20, cumulative = -5.57138e-19
DICPCG:  Solving for p, Initial residual = 0.00469868, Final residual = 9.63923e-07, No Iterations 238
time step continuity errors : sum local = 1.35854e-10, global = 1.65628e-20, cumulative = -5.40575e-19
ExecutionTime = 10.59 s  ClockTime = 10 s

Time = 0.030625

Courant Number mean: 0.140652 max: 0.969684
smoothSolver:  Solving for Ux, Initial residual = 0.00263961, Final residual = 9.73114e-06, No Iterations 19
smoothSolver:  Solving for Uy, Initial residual = 0.00425678, Final residual = 9.19515e-06, No Iterations 21
DICPCG:  Solving for p, Initial residual = 0.00463794, Final residual = 0.00022831, No Iterations 95
time step continuity errors : sum local = 3.73323e-08, global = -1.14174e-19, cumulative = -6.54749e-19
DICPCG:  Solving for p, Initial residual = 0.00427795, Final residual = 8.76254e-07, No Iterations 239
time step continuity errors : sum local = 1.23289e-10, global = -8.60217e-21, cumulative = -6.63351e-19
ExecutionTime = 10.79 s  ClockTime = 10 s

Time = 0.03125

Courant Number mean: 0.141577 max: 0.969914
smoothSolver:  Solving for Ux, Initial residual = 0.00257138, Final residual = 9.47712e-06, No Iterations 19
smoothSolver:  Solving for Uy, Initial residual = 0.0041893, Final residual = 9.04482e-06, No Iterations 21
DICPCG:  Solving for p, Initial residual = 0.00504648, Final residual = 0.000244595, No Iterations 186
time step continuity errors : sum local = 3.4432e-08, global = -3.89995e-20, cumulative = -7.02351e-19
DICPCG:  Solving for p, Initial residual = 0.00460319, Final residual = 9.60152e-07, No Iterations 236
time step continuity errors : sum local = 1.35458e-10, global = -7.19968e-20, cumulative = -7.74347e-19
ExecutionTime = 11.01 s  ClockTime = 11 s

Time = 0.031875

Courant Number mean: 0.142483 max: 0.970135
smoothSolver:  Solving for Ux, Initial residual = 0.00252005, Final residual = 9.31071e-06, No Iterations 19
smoothSolver:  Solving for Uy, Initial residual = 0.00406827, Final residual = 8.78843e-06, No Iterations 21
DICPCG:  Solving for p, Initial residual = 0.00449439, Final residual = 0.000192767, No Iterations 184
time step continuity errors : sum local = 2.71144e-08, global = 1.73074e-20, cumulative = -7.5704e-19
DICPCG:  Solving for p, Initial residual = 0.00410731, Final residual = 8.66389e-07, No Iterations 239
time step continuity errors : sum local = 1.21846e-10, global = -5.86633e-20, cumulative = -8.15703e-19
ExecutionTime = 11.23 s  ClockTime = 11 s

Time = 0.0325

Courant Number mean: 0.143372 max: 0.97035
smoothSolver:  Solving for Ux, Initial residual = 0.00246301, Final residual = 9.11177e-06, No Iterations 19
smoothSolver:  Solving for Uy, Initial residual = 0.00397662, Final residual = 8.59838e-06, No Iterations 21
DICPCG:  Solving for p, Initial residual = 0.00413938, Final residual = 0.000175228, No Iterations 92
time step continuity errors : sum local = 2.60153e-08, global = -1.69663e-19, cumulative = -9.85366e-19
DICPCG:  Solving for p, Initial residual = 0.00381302, Final residual = 8.51094e-07, No Iterations 239
time step continuity errors : sum local = 1.19833e-10, global = -2.4633e-20, cumulative = -1.01e-18
ExecutionTime = 11.42 s  ClockTime = 11 s

Time = 0.033125

Courant Number mean: 0.144245 max: 0.970559
smoothSolver:  Solving for Ux, Initial residual = 0.00240495, Final residual = 8.90252e-06, No Iterations 19
smoothSolver:  Solving for Uy, Initial residual = 0.00389815, Final residual = 8.42935e-06, No Iterations 21
DICPCG:  Solving for p, Initial residual = 0.00435432, Final residual = 0.000200013, No Iterations 184
time step continuity errors : sum local = 2.81549e-08, global = -2.33924e-20, cumulative = -1.03339e-18
DICPCG:  Solving for p, Initial residual = 0.00397352, Final residual = 9.91438e-07, No Iterations 237
time step continuity errors : sum local = 1.39683e-10, global = -2.80653e-20, cumulative = -1.06146e-18
ExecutionTime = 11.64 s  ClockTime = 11 s

Time = 0.03375

Courant Number mean: 0.145102 max: 0.97076
smoothSolver:  Solving for Ux, Initial residual = 0.00235626, Final residual = 8.7352e-06, No Iterations 19
smoothSolver:  Solving for Uy, Initial residual = 0.00380904, Final residual = 8.23607e-06, No Iterations 21
DICPCG:  Solving for p, Initial residual = 0.00407453, Final residual = 0.000188302, No Iterations 92
time step continuity errors : sum local = 2.97148e-08, global = -1.71031e-20, cumulative = -1.07856e-18
DICPCG:  Solving for p, Initial residual = 0.00374249, Final residual = 8.50868e-07, No Iterations 239
time step continuity errors : sum local = 1.19824e-10, global = 5.44406e-20, cumulative = -1.02412e-18
ExecutionTime = 11.82 s  ClockTime = 11 s

Time = 0.034375

Courant Number mean: 0.145945 max: 0.970957
smoothSolver:  Solving for Ux, Initial residual = 0.00230071, Final residual = 8.52864e-06, No Iterations 19
smoothSolver:  Solving for Uy, Initial residual = 0.00374782, Final residual = 8.10082e-06, No Iterations 21
DICPCG:  Solving for p, Initial residual = 0.00442276, Final residual = 0.000203253, No Iterations 185
time step continuity errors : sum local = 2.86368e-08, global = -1.56071e-19, cumulative = -1.18019e-18
DICPCG:  Solving for p, Initial residual = 0.00403952, Final residual = 9.8917e-07, No Iterations 238
time step continuity errors : sum local = 1.39494e-10, global = -3.18849e-20, cumulative = -1.21208e-18
ExecutionTime = 12.05 s  ClockTime = 12 s

Time = 0.035

Courant Number mean: 0.146774 max: 0.971147
smoothSolver:  Solving for Ux, Initial residual = 0.00225776, Final residual = 8.38576e-06, No Iterations 19
smoothSolver:  Solving for Uy, Initial residual = 0.0036541, Final residual = 7.90023e-06, No Iterations 21
DICPCG:  Solving for p, Initial residual = 0.00398344, Final residual = 0.000197635, No Iterations 95
time step continuity errors : sum local = 3.21744e-08, global = -4.13517e-21, cumulative = -1.21621e-18
DICPCG:  Solving for p, Initial residual = 0.00367861, Final residual = 8.89252e-07, No Iterations 239
time step continuity errors : sum local = 1.25294e-10, global = -8.95093e-20, cumulative = -1.30572e-18
ExecutionTime = 12.23 s  ClockTime = 12 s

Time = 0.035625

Courant Number mean: 0.147589 max: 0.971332
smoothSolver:  Solving for Ux, Initial residual = 0.00220527, Final residual = 8.18779e-06, No Iterations 19
smoothSolver:  Solving for Uy, Initial residual = 0.00360328, Final residual = 7.78653e-06, No Iterations 21
DICPCG:  Solving for p, Initial residual = 0.00437007, Final residual = 0.000197575, No Iterations 186
time step continuity errors : sum local = 2.78517e-08, global = -1.43533e-20, cumulative = -1.32007e-18
DICPCG:  Solving for p, Initial residual = 0.00398531, Final residual = 9.36029e-07, No Iterations 239
time step continuity errors : sum local = 1.32091e-10, global = 2.11544e-20, cumulative = -1.29892e-18
ExecutionTime = 12.45 s  ClockTime = 12 s

Time = 0.03625

Courant Number mean: 0.14839 max: 0.971511
smoothSolver:  Solving for Ux, Initial residual = 0.00216606, Final residual = 8.05903e-06, No Iterations 19
smoothSolver:  Solving for Uy, Initial residual = 0.00350961, Final residual = 7.58768e-06, No Iterations 21
DICPCG:  Solving for p, Initial residual = 0.00386693, Final residual = 0.000170303, No Iterations 184
time step continuity errors : sum local = 2.39917e-08, global = 4.16659e-20, cumulative = -1.25725e-18
DICPCG:  Solving for p, Initial residual = 0.00354733, Final residual = 8.7212e-07, No Iterations 239
time step continuity errors : sum local = 1.22836e-10, global = -1.07661e-20, cumulative = -1.26802e-18
ExecutionTime = 12.68 s  ClockTime = 12 s

Time = 0.036875

Courant Number mean: 0.149178 max: 0.971686
smoothSolver:  Solving for Ux, Initial residual = 0.00212196, Final residual = 7.90312e-06, No Iterations 19
smoothSolver:  Solving for Uy, Initial residual = 0.00343881, Final residual = 9.96566e-06, No Iterations 20
DICPCG:  Solving for p, Initial residual = 0.00362096, Final residual = 0.000149001, No Iterations 92
time step continuity errors : sum local = 2.22429e-08, global = 1.07708e-19, cumulative = -1.16031e-18
DICPCG:  Solving for p, Initial residual = 0.0033375, Final residual = 9.37063e-07, No Iterations 238
time step continuity errors : sum local = 1.32044e-10, global = -5.64812e-20, cumulative = -1.21679e-18
ExecutionTime = 12.87 s  ClockTime = 12 s

Time = 0.0375

Courant Number mean: 0.149952 max: 0.971856
smoothSolver:  Solving for Ux, Initial residual = 0.00207662, Final residual = 7.73742e-06, No Iterations 19
smoothSolver:  Solving for Uy, Initial residual = 0.00337894, Final residual = 9.79249e-06, No Iterations 20
DICPCG:  Solving for p, Initial residual = 0.00380713, Final residual = 0.000176434, No Iterations 184
time step continuity errors : sum local = 2.48636e-08, global = 2.98728e-20, cumulative = -1.18692e-18
DICPCG:  Solving for p, Initial residual = 0.003478, Final residual = 9.12925e-07, No Iterations 238
time step continuity errors : sum local = 1.28805e-10, global = -2.52894e-20, cumulative = -1.21221e-18
ExecutionTime = 13.16 s  ClockTime = 13 s

Time = 0.038125

Courant Number mean: 0.150712 max: 0.972021
smoothSolver:  Solving for Ux, Initial residual = 0.00203902, Final residual = 7.60751e-06, No Iterations 19
smoothSolver:  Solving for Uy, Initial residual = 0.00330853, Final residual = 9.58748e-06, No Iterations 20
DICPCG:  Solving for p, Initial residual = 0.0035707, Final residual = 0.000164638, No Iterations 92
time step continuity errors : sum local = 2.60843e-08, global = 2.39452e-20, cumulative = -1.18826e-18
DICPCG:  Solving for p, Initial residual = 0.00328219, Final residual = 9.86432e-07, No Iterations 238
time step continuity errors : sum local = 1.39035e-10, global = 2.68118e-20, cumulative = -1.16145e-18
ExecutionTime = 13.35 s  ClockTime = 13 s

Time = 0.03875

Courant Number mean: 0.151461 max: 0.972182
smoothSolver:  Solving for Ux, Initial residual = 0.00199525, Final residual = 9.98687e-06, No Iterations 18
smoothSolver:  Solving for Uy, Initial residual = 0.00326208, Final residual = 9.44938e-06, No Iterations 20
DICPCG:  Solving for p, Initial residual = 0.0039001, Final residual = 0.00019465, No Iterations 184
time step continuity errors : sum local = 2.74513e-08, global = -7.07196e-20, cumulative = -1.23217e-18
DICPCG:  Solving for p, Initial residual = 0.00355994, Final residual = 9.93441e-07, No Iterations 238
time step continuity errors : sum local = 1.40243e-10, global = 6.38935e-20, cumulative = -1.16828e-18
ExecutionTime = 13.57 s  ClockTime = 13 s

Time = 0.039375

Courant Number mean: 0.152199 max: 0.972339
smoothSolver:  Solving for Ux, Initial residual = 0.00196196, Final residual = 9.83653e-06, No Iterations 18
smoothSolver:  Solving for Uy, Initial residual = 0.00318688, Final residual = 9.23325e-06, No Iterations 20
DICPCG:  Solving for p, Initial residual = 0.00354729, Final residual = 0.000173528, No Iterations 95
time step continuity errors : sum local = 2.82423e-08, global = -3.90091e-20, cumulative = -1.20729e-18
DICPCG:  Solving for p, Initial residual = 0.00327247, Final residual = 9.65594e-07, No Iterations 238
time step continuity errors : sum local = 1.36113e-10, global = 5.5951e-20, cumulative = -1.15134e-18
ExecutionTime = 13.75 s  ClockTime = 13 s

Time = 0.04

Courant Number mean: 0.152925 max: 0.972492
smoothSolver:  Solving for Ux, Initial residual = 0.00192051, Final residual = 9.62402e-06, No Iterations 18
smoothSolver:  Solving for Uy, Initial residual = 0.00314776, Final residual = 9.11564e-06, No Iterations 20
DICPCG:  Solving for p, Initial residual = 0.00384009, Final residual = 0.000184827, No Iterations 185
time step continuity errors : sum local = 2.60801e-08, global = -2.67008e-20, cumulative = -1.17804e-18
DICPCG:  Solving for p, Initial residual = 0.00350541, Final residual = 9.29185e-07, No Iterations 239
time step continuity errors : sum local = 1.31247e-10, global = 6.46285e-20, cumulative = -1.11341e-18
ExecutionTime = 13.98 s  ClockTime = 14 s

Time = 0.040625

Courant Number mean: 0.153641 max: 0.97264
smoothSolver:  Solving for Ux, Initial residual = 0.00188961, Final residual = 9.48705e-06, No Iterations 18
smoothSolver:  Solving for Uy, Initial residual = 0.00307251, Final residual = 8.90132e-06, No Iterations 20
DICPCG:  Solving for p, Initial residual = 0.00344342, Final residual = 0.000152336, No Iterations 184
time step continuity errors : sum local = 2.14741e-08, global = -2.63952e-20, cumulative = -1.1398e-18
DICPCG:  Solving for p, Initial residual = 0.00316263, Final residual = 9.66554e-07, No Iterations 238
time step continuity errors : sum local = 1.36199e-10, global = -2.59235e-20, cumulative = -1.16573e-18
ExecutionTime = 14.21 s  ClockTime = 14 s

Time = 0.04125

Courant Number mean: 0.154345 max: 0.972786
smoothSolver:  Solving for Ux, Initial residual = 0.00185459, Final residual = 9.31894e-06, No Iterations 18
smoothSolver:  Solving for Uy, Initial residual = 0.00301613, Final residual = 8.74425e-06, No Iterations 20
DICPCG:  Solving for p, Initial residual = 0.00321502, Final residual = 0.000129988, No Iterations 92
time step continuity errors : sum local = 1.92815e-08, global = 1.03782e-19, cumulative = -1.06195e-18
DICPCG:  Solving for p, Initial residual = 0.00296536, Final residual = 9.52284e-07, No Iterations 237
time step continuity errors : sum local = 1.34266e-10, global = -8.47944e-20, cumulative = -1.14674e-18
ExecutionTime = 14.39 s  ClockTime = 14 s

Time = 0.041875

Courant Number mean: 0.155038 max: 0.972927
smoothSolver:  Solving for Ux, Initial residual = 0.00181856, Final residual = 9.14e-06, No Iterations 18
smoothSolver:  Solving for Uy, Initial residual = 0.00296761, Final residual = 8.60407e-06, No Iterations 20
DICPCG:  Solving for p, Initial residual = 0.00336005, Final residual = 0.000161599, No Iterations 183
time step continuity errors : sum local = 2.27788e-08, global = -2.49021e-21, cumulative = -1.14923e-18
DICPCG:  Solving for p, Initial residual = 0.0030734, Final residual = 9.7023e-07, No Iterations 237
time step continuity errors : sum local = 1.36967e-10, global = 4.83727e-20, cumulative = -1.10086e-18
ExecutionTime = 14.61 s  ClockTime = 14 s

Time = 0.0425

Courant Number mean: 0.155721 max: 0.973065
smoothSolver:  Solving for Ux, Initial residual = 0.00178856, Final residual = 8.99891e-06, No Iterations 18
smoothSolver:  Solving for Uy, Initial residual = 0.00291177, Final residual = 8.44085e-06, No Iterations 20
DICPCG:  Solving for p, Initial residual = 0.00319959, Final residual = 0.00013821, No Iterations 92
time step continuity errors : sum local = 2.18043e-08, global = -5.08857e-20, cumulative = -1.15174e-18
DICPCG:  Solving for p, Initial residual = 0.00293916, Final residual = 9.56885e-07, No Iterations 237
time step continuity errors : sum local = 1.34928e-10, global = -7.09047e-20, cumulative = -1.22265e-18
ExecutionTime = 14.79 s  ClockTime = 14 s

Time = 0.043125

Courant Number mean: 0.156393 max: 0.9732
smoothSolver:  Solving for Ux, Initial residual = 0.00175334, Final residual = 8.81967e-06, No Iterations 18
smoothSolver:  Solving for Uy, Initial residual = 0.00287376, Final residual = 8.32819e-06, No Iterations 20
DICPCG:  Solving for p, Initial residual = 0.00343203, Final residual = 0.000160904, No Iterations 184
time step continuity errors : sum local = 2.27206e-08, global = 5.54049e-20, cumulative = -1.16724e-18
DICPCG:  Solving for p, Initial residual = 0.00313759, Final residual = 9.15795e-07, No Iterations 238
time step continuity errors : sum local = 1.29366e-10, global = -9.93116e-20, cumulative = -1.26655e-18
ExecutionTime = 15.01 s  ClockTime = 15 s

Time = 0.04375

Courant Number mean: 0.157055 max: 0.973331
smoothSolver:  Solving for Ux, Initial residual = 0.00172655, Final residual = 8.69741e-06, No Iterations 18
smoothSolver:  Solving for Uy, Initial residual = 0.00281362, Final residual = 8.15496e-06, No Iterations 20
DICPCG:  Solving for p, Initial residual = 0.00312093, Final residual = 0.000153164, No Iterations 95
time step continuity errors : sum local = 2.48062e-08, global = -3.19198e-20, cumulative = -1.29847e-18
DICPCG:  Solving for p, Initial residual = 0.00288299, Final residual = 8.61251e-07, No Iterations 238
time step continuity errors : sum local = 1.21517e-10, global = -4.00496e-20, cumulative = -1.33852e-18
ExecutionTime = 15.19 s  ClockTime = 15 s

Time = 0.044375

Courant Number mean: 0.157708 max: 0.97346
smoothSolver:  Solving for Ux, Initial residual = 0.00169303, Final residual = 8.52351e-06, No Iterations 18
smoothSolver:  Solving for Uy, Initial residual = 0.00278215, Final residual = 8.06018e-06, No Iterations 20
DICPCG:  Solving for p, Initial residual = 0.00340241, Final residual = 0.000165984, No Iterations 185
time step continuity errors : sum local = 2.34459e-08, global = -5.11043e-20, cumulative = -1.38963e-18
DICPCG:  Solving for p, Initial residual = 0.00310869, Final residual = 8.64431e-07, No Iterations 239
time step continuity errors : sum local = 1.22184e-10, global = 2.949e-20, cumulative = -1.36014e-18
ExecutionTime = 15.41 s  ClockTime = 15 s

Time = 0.045

Courant Number mean: 0.158353 max: 0.973585
smoothSolver:  Solving for Ux, Initial residual = 0.0016682, Final residual = 8.41216e-06, No Iterations 18
smoothSolver:  Solving for Uy, Initial residual = 0.00272086, Final residual = 7.88526e-06, No Iterations 20
DICPCG:  Solving for p, Initial residual = 0.00306798, Final residual = 0.000133091, No Iterations 184
time step continuity errors : sum local = 1.87843e-08, global = 2.52227e-20, cumulative = -1.33492e-18
DICPCG:  Solving for p, Initial residual = 0.00281867, Final residual = 8.71789e-07, No Iterations 238
time step continuity errors : sum local = 1.22961e-10, global = -7.83069e-20, cumulative = -1.41322e-18
ExecutionTime = 15.65 s  ClockTime = 15 s

Time = 0.045625

Courant Number mean: 0.158989 max: 0.973708
smoothSolver:  Solving for Ux, Initial residual = 0.00163965, Final residual = 8.27439e-06, No Iterations 18
smoothSolver:  Solving for Uy, Initial residual = 0.00267489, Final residual = 7.75708e-06, No Iterations 20
DICPCG:  Solving for p, Initial residual = 0.00287012, Final residual = 0.00014299, No Iterations 91
time step continuity errors : sum local = 2.1031e-08, global = 5.70255e-20, cumulative = -1.3562e-18
DICPCG:  Solving for p, Initial residual = 0.00265298, Final residual = 8.76705e-07, No Iterations 237
time step continuity errors : sum local = 1.23712e-10, global = 2.3436e-20, cumulative = -1.33276e-18
ExecutionTime = 15.83 s  ClockTime = 15 s

Time = 0.04625

Courant Number mean: 0.159615 max: 0.973828
smoothSolver:  Solving for Ux, Initial residual = 0.00161006, Final residual = 8.12659e-06, No Iterations 18
smoothSolver:  Solving for Uy, Initial residual = 0.00263579, Final residual = 7.64384e-06, No Iterations 20
DICPCG:  Solving for p, Initial residual = 0.00302698, Final residual = 0.000140238, No Iterations 183
time step continuity errors : sum local = 1.97882e-08, global = -6.40684e-20, cumulative = -1.39683e-18
DICPCG:  Solving for p, Initial residual = 0.00277107, Final residual = 8.67035e-07, No Iterations 237
time step continuity errors : sum local = 1.22475e-10, global = -1.96951e-20, cumulative = -1.41652e-18
ExecutionTime = 16.05 s  ClockTime = 16 s

Time = 0.046875

Courant Number mean: 0.160233 max: 0.973944
smoothSolver:  Solving for Ux, Initial residual = 0.00158583, Final residual = 8.012e-06, No Iterations 18
smoothSolver:  Solving for Uy, Initial residual = 0.00258936, Final residual = 7.50808e-06, No Iterations 20
DICPCG:  Solving for p, Initial residual = 0.00284436, Final residual = 0.00011993, No Iterations 92
time step continuity errors : sum local = 1.89913e-08, global = 1.05239e-19, cumulative = -1.31129e-18
DICPCG:  Solving for p, Initial residual = 0.00262134, Final residual = 8.75426e-07, No Iterations 237
time step continuity errors : sum local = 1.23548e-10, global = -4.77585e-20, cumulative = -1.35904e-18
ExecutionTime = 16.23 s  ClockTime = 16 s

Time = 0.0475

Courant Number mean: 0.160842 max: 0.974059
smoothSolver:  Solving for Ux, Initial residual = 0.00155688, Final residual = 7.86262e-06, No Iterations 18
smoothSolver:  Solving for Uy, Initial residual = 0.00255873, Final residual = 9.9337e-06, No Iterations 19
DICPCG:  Solving for p, Initial residual = 0.00305892, Final residual = 0.000145879, No Iterations 184
time step continuity errors : sum local = 2.06171e-08, global = 5.01172e-20, cumulative = -1.30893e-18
DICPCG:  Solving for p, Initial residual = 0.00279757, Final residual = 9.50062e-07, No Iterations 237
time step continuity errors : sum local = 1.34268e-10, global = 2.94922e-20, cumulative = -1.27944e-18
ExecutionTime = 16.45 s  ClockTime = 16 s

Time = 0.048125

Courant Number mean: 0.161443 max: 0.97417
smoothSolver:  Solving for Ux, Initial residual = 0.00153504, Final residual = 7.76236e-06, No Iterations 18
smoothSolver:  Solving for Uy, Initial residual = 0.00250867, Final residual = 9.74053e-06, No Iterations 19
DICPCG:  Solving for p, Initial residual = 0.00278661, Final residual = 0.000134516, No Iterations 104
time step continuity errors : sum local = 2.19779e-08, global = 5.63228e-20, cumulative = -1.22311e-18
DICPCG:  Solving for p, Initial residual = 0.00255724, Final residual = 9.2307e-07, No Iterations 237
time step continuity errors : sum local = 1.30298e-10, global = 5.90084e-20, cumulative = -1.1641e-18
ExecutionTime = 16.64 s  ClockTime = 16 s

Time = 0.04875

Courant Number mean: 0.162035 max: 0.97428
smoothSolver:  Solving for Ux, Initial residual = 0.00150803, Final residual = 7.62205e-06, No Iterations 18
smoothSolver:  Solving for Uy, Initial residual = 0.00248313, Final residual = 9.63689e-06, No Iterations 19
DICPCG:  Solving for p, Initial residual = 0.0029577, Final residual = 0.000132203, No Iterations 186
time step continuity errors : sum local = 1.86881e-08, global = 1.59584e-19, cumulative = -1.00452e-18
DICPCG:  Solving for p, Initial residual = 0.00270862, Final residual = 8.4372e-07, No Iterations 239
time step continuity errors : sum local = 1.19331e-10, global = -2.27197e-20, cumulative = -1.02724e-18
ExecutionTime = 16.87 s  ClockTime = 16 s

Time = 0.049375

Courant Number mean: 0.162618 max: 0.974387
smoothSolver:  Solving for Ux, Initial residual = 0.00148683, Final residual = 7.52568e-06, No Iterations 18
smoothSolver:  Solving for Uy, Initial residual = 0.00243161, Final residual = 9.44055e-06, No Iterations 19
DICPCG:  Solving for p, Initial residual = 0.00270079, Final residual = 0.000128029, No Iterations 183
time step continuity errors : sum local = 1.80993e-08, global = -2.44307e-20, cumulative = -1.05167e-18
DICPCG:  Solving for p, Initial residual = 0.00249091, Final residual = 8.73254e-07, No Iterations 237
time step continuity errors : sum local = 1.23247e-10, global = -9.01877e-20, cumulative = -1.14186e-18
ExecutionTime = 17.09 s  ClockTime = 17 s

Time = 0.05

Courant Number mean: 0.163194 max: 0.974492
smoothSolver:  Solving for Ux, Initial residual = 0.00146316, Final residual = 9.93893e-06, No Iterations 17
smoothSolver:  Solving for Uy, Initial residual = 0.0023937, Final residual = 9.29865e-06, No Iterations 19
DICPCG:  Solving for p, Initial residual = 0.00262063, Final residual = 0.000115908, No Iterations 91
time step continuity errors : sum local = 1.70804e-08, global = 3.44236e-20, cumulative = -1.10743e-18
DICPCG:  Solving for p, Initial residual = 0.00241767, Final residual = 8.90872e-07, No Iterations 236
time step continuity errors : sum local = 1.25763e-10, global = 3.78104e-20, cumulative = -1.06962e-18
ExecutionTime = 17.33 s  ClockTime = 17 s

Time = 0.050625

Courant Number mean: 0.163763 max: 0.974595
smoothSolver:  Solving for Ux, Initial residual = 0.00143888, Final residual = 9.77467e-06, No Iterations 17
smoothSolver:  Solving for Uy, Initial residual = 0.00236077, Final residual = 9.17088e-06, No Iterations 19
DICPCG:  Solving for p, Initial residual = 0.0027153, Final residual = 0.000132416, No Iterations 182
time step continuity errors : sum local = 1.86953e-08, global = 3.08895e-20, cumulative = -1.03873e-18
DICPCG:  Solving for p, Initial residual = 0.00248979, Final residual = 9.38424e-07, No Iterations 236
time step continuity errors : sum local = 1.32631e-10, global = 7.31699e-20, cumulative = -9.65565e-19
ExecutionTime = 17.55 s  ClockTime = 17 s

Time = 0.05125

Courant Number mean: 0.164325 max: 0.974695
smoothSolver:  Solving for Ux, Initial residual = 0.00141879, Final residual = 9.646e-06, No Iterations 17
smoothSolver:  Solving for Uy, Initial residual = 0.00232214, Final residual = 9.01945e-06, No Iterations 19
DICPCG:  Solving for p, Initial residual = 0.00255669, Final residual = 0.00011513, No Iterations 91
time step continuity errors : sum local = 1.79995e-08, global = 5.67653e-20, cumulative = -9.08799e-19
DICPCG:  Solving for p, Initial residual = 0.00235717, Final residual = 9.09499e-07, No Iterations 236
time step continuity errors : sum local = 1.28422e-10, global = -5.42151e-22, cumulative = -9.09341e-19
ExecutionTime = 17.73 s  ClockTime = 17 s

Time = 0.051875

Courant Number mean: 0.164879 max: 0.974794
smoothSolver:  Solving for Ux, Initial residual = 0.00139453, Final residual = 9.47793e-06, No Iterations 17
smoothSolver:  Solving for Uy, Initial residual = 0.00229655, Final residual = 8.9175e-06, No Iterations 19
DICPCG:  Solving for p, Initial residual = 0.00276275, Final residual = 0.000129767, No Iterations 184
time step continuity errors : sum local = 1.83533e-08, global = 2.35074e-20, cumulative = -8.85834e-19
DICPCG:  Solving for p, Initial residual = 0.00253035, Final residual = 8.46509e-07, No Iterations 237
time step continuity errors : sum local = 1.19685e-10, global = -4.00405e-20, cumulative = -9.25875e-19
ExecutionTime = 17.95 s  ClockTime = 18 s

Time = 0.0525

Courant Number mean: 0.165426 max: 0.97489
smoothSolver:  Solving for Ux, Initial residual = 0.00137649, Final residual = 9.36608e-06, No Iterations 17
smoothSolver:  Solving for Uy, Initial residual = 0.00225457, Final residual = 8.75516e-06, No Iterations 19
DICPCG:  Solving for p, Initial residual = 0.00252784, Final residual = 0.000122105, No Iterations 92
time step continuity errors : sum local = 1.96618e-08, global = 5.44948e-21, cumulative = -9.20425e-19
DICPCG:  Solving for p, Initial residual = 0.00232301, Final residual = 9.46437e-07, No Iterations 236
time step continuity errors : sum local = 1.33654e-10, global = -9.99359e-20, cumulative = -1.02036e-18
ExecutionTime = 18.14 s  ClockTime = 18 s

Time = 0.053125

Courant Number mean: 0.165966 max: 0.974985
smoothSolver:  Solving for Ux, Initial residual = 0.00135295, Final residual = 9.20005e-06, No Iterations 17
smoothSolver:  Solving for Uy, Initial residual = 0.00223337, Final residual = 8.66948e-06, No Iterations 19
DICPCG:  Solving for p, Initial residual = 0.00279071, Final residual = 0.000129694, No Iterations 185
time step continuity errors : sum local = 1.83421e-08, global = -5.12446e-20, cumulative = -1.07161e-18
DICPCG:  Solving for p, Initial residual = 0.00255243, Final residual = 9.35314e-07, No Iterations 237
time step continuity errors : sum local = 1.32294e-10, global = -4.55175e-21, cumulative = -1.07616e-18
ExecutionTime = 18.35 s  ClockTime = 18 s

Time = 0.05375

Courant Number mean: 0.1665 max: 0.975077
smoothSolver:  Solving for Ux, Initial residual = 0.00133632, Final residual = 9.09899e-06, No Iterations 17
smoothSolver:  Solving for Uy, Initial residual = 0.00218995, Final residual = 8.50297e-06, No Iterations 19
DICPCG:  Solving for p, Initial residual = 0.00250172, Final residual = 0.000113233, No Iterations 183
time step continuity errors : sum local = 1.60085e-08, global = -4.56669e-20, cumulative = -1.12182e-18
DICPCG:  Solving for p, Initial residual = 0.00230289, Final residual = 9.0843e-07, No Iterations 236
time step continuity errors : sum local = 1.28282e-10, global = 9.47394e-21, cumulative = -1.11235e-18
ExecutionTime = 18.58 s  ClockTime = 18 s

Time = 0.054375

Courant Number mean: 0.167026 max: 0.975168
smoothSolver:  Solving for Ux, Initial residual = 0.00131639, Final residual = 8.96801e-06, No Iterations 17
smoothSolver:  Solving for Uy, Initial residual = 0.00215754, Final residual = 8.382e-06, No Iterations 19
DICPCG:  Solving for p, Initial residual = 0.00235335, Final residual = 0.000114613, No Iterations 90
time step continuity errors : sum local = 1.68124e-08, global = 1.0643e-19, cumulative = -1.00592e-18
DICPCG:  Solving for p, Initial residual = 0.00217026, Final residual = 9.26448e-07, No Iterations 235
time step continuity errors : sum local = 1.30849e-10, global = 2.18559e-20, cumulative = -9.84064e-19
ExecutionTime = 18.75 s  ClockTime = 18 s

Time = 0.055

Courant Number mean: 0.167546 max: 0.975257
smoothSolver:  Solving for Ux, Initial residual = 0.00129564, Final residual = 8.82726e-06, No Iterations 17
smoothSolver:  Solving for Uy, Initial residual = 0.00213021, Final residual = 8.27595e-06, No Iterations 19
DICPCG:  Solving for p, Initial residual = 0.00248598, Final residual = 0.000123289, No Iterations 181
time step continuity errors : sum local = 1.74155e-08, global = -1.07525e-19, cumulative = -1.09159e-18
DICPCG:  Solving for p, Initial residual = 0.00227959, Final residual = 9.54614e-07, No Iterations 235
time step continuity errors : sum local = 1.34991e-10, global = -5.12389e-20, cumulative = -1.14283e-18
ExecutionTime = 18.98 s  ClockTime = 19 s

Time = 0.055625

Courant Number mean: 0.168059 max: 0.975344
smoothSolver:  Solving for Ux, Initial residual = 0.00127887, Final residual = 8.71961e-06, No Iterations 17
smoothSolver:  Solving for Uy, Initial residual = 0.00209716, Final residual = 8.14632e-06, No Iterations 19
DICPCG:  Solving for p, Initial residual = 0.00231796, Final residual = 0.000114332, No Iterations 90
time step continuity errors : sum local = 1.77313e-08, global = -3.76653e-20, cumulative = -1.18049e-18
DICPCG:  Solving for p, Initial residual = 0.00213512, Final residual = 9.75767e-07, No Iterations 234
time step continuity errors : sum local = 1.37821e-10, global = 2.99106e-20, cumulative = -1.15058e-18
ExecutionTime = 19.15 s  ClockTime = 19 s

Time = 0.05625

Courant Number mean: 0.168565 max: 0.97543
smoothSolver:  Solving for Ux, Initial residual = 0.00125828, Final residual = 8.57532e-06, No Iterations 17
smoothSolver:  Solving for Uy, Initial residual = 0.00207599, Final residual = 8.06171e-06, No Iterations 19
DICPCG:  Solving for p, Initial residual = 0.00252192, Final residual = 0.000118861, No Iterations 184
time step continuity errors : sum local = 1.68182e-08, global = -6.09614e-21, cumulative = -1.15668e-18
DICPCG:  Solving for p, Initial residual = 0.00231535, Final residual = 9.19606e-07, No Iterations 236
time step continuity errors : sum local = 1.30103e-10, global = 2.85917e-21, cumulative = -1.15382e-18
ExecutionTime = 19.37 s  ClockTime = 19 s

Time = 0.056875

Courant Number mean: 0.169066 max: 0.975513
smoothSolver:  Solving for Ux, Initial residual = 0.00124324, Final residual = 8.48196e-06, No Iterations 17
smoothSolver:  Solving for Uy, Initial residual = 0.00203977, Final residual = 7.92166e-06, No Iterations 19
DICPCG:  Solving for p, Initial residual = 0.00230024, Final residual = 0.00010793, No Iterations 92
time step continuity errors : sum local = 1.74254e-08, global = 4.11354e-20, cumulative = -1.11268e-18
DICPCG:  Solving for p, Initial residual = 0.00212141, Final residual = 9.45323e-07, No Iterations 235
time step continuity errors : sum local = 1.33569e-10, global = -1.09416e-21, cumulative = -1.11378e-18
ExecutionTime = 19.55 s  ClockTime = 19 s

Time = 0.0575

Courant Number mean: 0.169561 max: 0.975596
smoothSolver:  Solving for Ux, Initial residual = 0.0012231, Final residual = 8.33904e-06, No Iterations 17
smoothSolver:  Solving for Uy, Initial residual = 0.00202199, Final residual = 7.84981e-06, No Iterations 19
DICPCG:  Solving for p, Initial residual = 0.002525, Final residual = 0.000116542, No Iterations 185
time step continuity errors : sum local = 1.64903e-08, global = 9.55359e-20, cumulative = -1.01824e-18
DICPCG:  Solving for p, Initial residual = 0.00231121, Final residual = 9.39051e-07, No Iterations 236
time step continuity errors : sum local = 1.32911e-10, global = -1.75644e-20, cumulative = -1.03581e-18
ExecutionTime = 19.78 s  ClockTime = 19 s

Time = 0.058125

Courant Number mean: 0.17005 max: 0.975676
smoothSolver:  Solving for Ux, Initial residual = 0.00120907, Final residual = 8.25387e-06, No Iterations 17
smoothSolver:  Solving for Uy, Initial residual = 0.00198456, Final residual = 7.70626e-06, No Iterations 19
DICPCG:  Solving for p, Initial residual = 0.00227644, Final residual = 0.000112068, No Iterations 182
time step continuity errors : sum local = 1.58588e-08, global = -5.13153e-20, cumulative = -1.08712e-18
DICPCG:  Solving for p, Initial residual = 0.00209995, Final residual = 9.81891e-07, No Iterations 234
time step continuity errors : sum local = 1.38737e-10, global = -9.12618e-20, cumulative = -1.17838e-18
ExecutionTime = 20 s  ClockTime = 20 s

Time = 0.05875

Courant Number mean: 0.170533 max: 0.975756
smoothSolver:  Solving for Ux, Initial residual = 0.00119205, Final residual = 8.14175e-06, No Iterations 17
smoothSolver:  Solving for Uy, Initial residual = 0.00195678, Final residual = 7.60264e-06, No Iterations 19
DICPCG:  Solving for p, Initial residual = 0.00216127, Final residual = 0.000107904, No Iterations 89
time step continuity errors : sum local = 1.57938e-08, global = -3.40546e-20, cumulative = -1.21244e-18
DICPCG:  Solving for p, Initial residual = 0.00199343, Final residual = 9.73735e-07, No Iterations 233
time step continuity errors : sum local = 1.37583e-10, global = 3.36999e-20, cumulative = -1.17874e-18
ExecutionTime = 20.18 s  ClockTime = 20 s

Time = 0.059375

Courant Number mean: 0.171011 max: 0.975834
smoothSolver:  Solving for Ux, Initial residual = 0.00117436, Final residual = 8.02078e-06, No Iterations 17
smoothSolver:  Solving for Uy, Initial residual = 0.00193363, Final residual = 7.51287e-06, No Iterations 19
DICPCG:  Solving for p, Initial residual = 0.00229399, Final residual = 0.000112277, No Iterations 92
time step continuity errors : sum local = 1.86958e-08, global = -9.96727e-20, cumulative = -1.27841e-18
DICPCG:  Solving for p, Initial residual = 0.00209615, Final residual = 8.85982e-07, No Iterations 235
time step continuity errors : sum local = 1.25292e-10, global = 3.98814e-20, cumulative = -1.23853e-18
ExecutionTime = 20.36 s  ClockTime = 20 s

Time = 0.06

Courant Number mean: 0.171483 max: 0.97591
smoothSolver:  Solving for Ux, Initial residual = 0.00116868, Final residual = 7.98299e-06, No Iterations 17
smoothSolver:  Solving for Uy, Initial residual = 0.00189922, Final residual = 9.86885e-06, No Iterations 18
DICPCG:  Solving for p, Initial residual = 0.00241887, Final residual = 0.000118469, No Iterations 167
time step continuity errors : sum local = 1.6851e-08, global = 1.36992e-19, cumulative = -1.10154e-18
DICPCG:  Solving for p, Initial residual = 0.00222117, Final residual = 9.97625e-07, No Iterations 231
time step continuity errors : sum local = 1.41309e-10, global = -1.43111e-19, cumulative = -1.24465e-18
ExecutionTime = 20.57 s  ClockTime = 20 s

Time = 0.060625

Courant Number mean: 0.17195 max: 0.975985
smoothSolver:  Solving for Ux, Initial residual = 0.0011437, Final residual = 7.81527e-06, No Iterations 17
smoothSolver:  Solving for Uy, Initial residual = 0.00188543, Final residual = 9.80861e-06, No Iterations 18
DICPCG:  Solving for p, Initial residual = 0.00221509, Final residual = 0.000103701, No Iterations 92
time step continuity errors : sum local = 1.65087e-08, global = -3.16484e-20, cumulative = -1.2763e-18
DICPCG:  Solving for p, Initial residual = 0.00201957, Final residual = 9.43605e-07, No Iterations 235
time step continuity errors : sum local = 1.33434e-10, global = 1.06061e-19, cumulative = -1.17024e-18
ExecutionTime = 20.74 s  ClockTime = 20 s

Time = 0.06125

Courant Number mean: 0.172411 max: 0.976058
smoothSolver:  Solving for Ux, Initial residual = 0.00113412, Final residual = 7.75324e-06, No Iterations 17
smoothSolver:  Solving for Uy, Initial residual = 0.00185159, Final residual = 9.62596e-06, No Iterations 18
DICPCG:  Solving for p, Initial residual = 0.00226782, Final residual = 0.00010742, No Iterations 183
time step continuity errors : sum local = 1.52e-08, global = -8.92932e-20, cumulative = -1.25953e-18
DICPCG:  Solving for p, Initial residual = 0.00208305, Final residual = 9.40694e-07, No Iterations 233
time step continuity errors : sum local = 1.33054e-10, global = -7.11835e-20, cumulative = -1.33071e-18
ExecutionTime = 20.96 s  ClockTime = 21 s

Time = 0.061875

Courant Number mean: 0.172866 max: 0.97613
smoothSolver:  Solving for Ux, Initial residual = 0.00111477, Final residual = 7.62358e-06, No Iterations 17
smoothSolver:  Solving for Uy, Initial residual = 0.00183199, Final residual = 9.53146e-06, No Iterations 18
DICPCG:  Solving for p, Initial residual = 0.00209475, Final residual = 9.96399e-05, No Iterations 89
time step continuity errors : sum local = 1.45697e-08, global = 3.46996e-20, cumulative = -1.29601e-18
DICPCG:  Solving for p, Initial residual = 0.00192048, Final residual = 9.62354e-07, No Iterations 233
time step continuity errors : sum local = 1.36073e-10, global = -7.41681e-20, cumulative = -1.37018e-18
ExecutionTime = 21.14 s  ClockTime = 21 s

Time = 0.0625

Courant Number mean: 0.173316 max: 0.976201
smoothSolver:  Solving for Ux, Initial residual = 0.00110006, Final residual = 7.5269e-06, No Iterations 17
smoothSolver:  Solving for Uy, Initial residual = 0.00180729, Final residual = 9.40318e-06, No Iterations 18
DICPCG:  Solving for p, Initial residual = 0.00210839, Final residual = 9.68131e-05, No Iterations 182
time step continuity errors : sum local = 1.37194e-08, global = -6.56784e-20, cumulative = -1.43586e-18
DICPCG:  Solving for p, Initial residual = 0.0019302, Final residual = 9.54734e-07, No Iterations 234
time step continuity errors : sum local = 1.35012e-10, global = 2.99304e-20, cumulative = -1.40593e-18
ExecutionTime = 21.43 s  ClockTime = 21 s

Time = 0.063125

Courant Number mean: 0.173761 max: 0.97627
smoothSolver:  Solving for Ux, Initial residual = 0.0010858, Final residual = 9.96348e-06, No Iterations 16
smoothSolver:  Solving for Uy, Initial residual = 0.0017844, Final residual = 9.28532e-06, No Iterations 18
DICPCG:  Solving for p, Initial residual = 0.00201377, Final residual = 0.000100495, No Iterations 89
time step continuity errors : sum local = 1.44923e-08, global = -2.84158e-20, cumulative = -1.43435e-18
DICPCG:  Solving for p, Initial residual = 0.00185047, Final residual = 9.76345e-07, No Iterations 227
time step continuity errors : sum local = 1.3811e-10, global = 4.20611e-20, cumulative = -1.39228e-18
ExecutionTime = 21.6 s  ClockTime = 21 s

Time = 0.06375

Courant Number mean: 0.1742 max: 0.976339
smoothSolver:  Solving for Ux, Initial residual = 0.00107064, Final residual = 9.82535e-06, No Iterations 16
smoothSolver:  Solving for Uy, Initial residual = 0.00176305, Final residual = 9.17509e-06, No Iterations 18
DICPCG:  Solving for p, Initial residual = 0.00209491, Final residual = 0.000100924, No Iterations 89
time step continuity errors : sum local = 1.58067e-08, global = 5.22828e-20, cumulative = -1.34e-18
DICPCG:  Solving for p, Initial residual = 0.00196555, Final residual = 9.7451e-07, No Iterations 233
time step continuity errors : sum local = 1.37843e-10, global = -7.45438e-21, cumulative = -1.34746e-18
ExecutionTime = 21.78 s  ClockTime = 21 s

Time = 0.064375

Courant Number mean: 0.174634 max: 0.976406
smoothSolver:  Solving for Ux, Initial residual = 0.00106195, Final residual = 9.74757e-06, No Iterations 16
smoothSolver:  Solving for Uy, Initial residual = 0.00173626, Final residual = 9.02789e-06, No Iterations 18
DICPCG:  Solving for p, Initial residual = 0.00209121, Final residual = 9.59989e-05, No Iterations 183
time step continuity errors : sum local = 1.3581e-08, global = -6.9025e-20, cumulative = -1.41648e-18
DICPCG:  Solving for p, Initial residual = 0.00192729, Final residual = 9.72421e-07, No Iterations 228
time step continuity errors : sum local = 1.37678e-10, global = -7.38404e-20, cumulative = -1.49032e-18
ExecutionTime = 21.99 s  ClockTime = 22 s

Time = 0.065

Courant Number mean: 0.175063 max: 0.976472
smoothSolver:  Solving for Ux, Initial residual = 0.0010451, Final residual = 9.5958e-06, No Iterations 16
smoothSolver:  Solving for Uy, Initial residual = 0.00171785, Final residual = 8.93808e-06, No Iterations 18
DICPCG:  Solving for p, Initial residual = 0.00197043, Final residual = 9.591e-05, No Iterations 89
time step continuity errors : sum local = 1.40097e-08, global = 3.59309e-20, cumulative = -1.45439e-18
DICPCG:  Solving for p, Initial residual = 0.0018045, Final residual = 9.61791e-07, No Iterations 228
time step continuity errors : sum local = 1.36043e-10, global = -3.01132e-20, cumulative = -1.4845e-18
ExecutionTime = 22.16 s  ClockTime = 22 s

Time = 0.065625

Courant Number mean: 0.175488 max: 0.976537
smoothSolver:  Solving for Ux, Initial residual = 0.00103182, Final residual = 9.47796e-06, No Iterations 16
smoothSolver:  Solving for Uy, Initial residual = 0.00169561, Final residual = 8.82201e-06, No Iterations 18
DICPCG:  Solving for p, Initial residual = 0.00201628, Final residual = 9.47861e-05, No Iterations 181
time step continuity errors : sum local = 1.34337e-08, global = 8.02061e-20, cumulative = -1.4043e-18
DICPCG:  Solving for p, Initial residual = 0.00185018, Final residual = 9.28619e-07, No Iterations 233
time step continuity errors : sum local = 1.31356e-10, global = 3.27276e-21, cumulative = -1.40102e-18
ExecutionTime = 22.38 s  ClockTime = 22 s

Time = 0.06625

Courant Number mean: 0.175909 max: 0.976601
smoothSolver:  Solving for Ux, Initial residual = 0.00101897, Final residual = 9.36295e-06, No Iterations 16
smoothSolver:  Solving for Uy, Initial residual = 0.00167495, Final residual = 8.71589e-06, No Iterations 18
DICPCG:  Solving for p, Initial residual = 0.00190111, Final residual = 9.21221e-05, No Iterations 89
time step continuity errors : sum local = 1.32997e-08, global = -5.63211e-20, cumulative = -1.45735e-18
DICPCG:  Solving for p, Initial residual = 0.00174637, Final residual = 8.90489e-07, No Iterations 227
time step continuity errors : sum local = 1.25993e-10, global = -5.28641e-20, cumulative = -1.51021e-18
ExecutionTime = 22.56 s  ClockTime = 22 s

Time = 0.066875

Courant Number mean: 0.176325 max: 0.976664
smoothSolver:  Solving for Ux, Initial residual = 0.00100516, Final residual = 9.23657e-06, No Iterations 16
smoothSolver:  Solving for Uy, Initial residual = 0.00165581, Final residual = 8.61715e-06, No Iterations 18
DICPCG:  Solving for p, Initial residual = 0.00196452, Final residual = 9.43722e-05, No Iterations 89
time step continuity errors : sum local = 1.47932e-08, global = -7.6151e-20, cumulative = -1.58636e-18
DICPCG:  Solving for p, Initial residual = 0.00184267, Final residual = 9.5023e-07, No Iterations 228
time step continuity errors : sum local = 1.346e-10, global = 1.6318e-21, cumulative = -1.58473e-18
ExecutionTime = 22.73 s  ClockTime = 22 s

Time = 0.0675

Courant Number mean: 0.176736 max: 0.976725
smoothSolver:  Solving for Ux, Initial residual = 0.000997421, Final residual = 9.16702e-06, No Iterations 16
smoothSolver:  Solving for Uy, Initial residual = 0.00163133, Final residual = 8.48272e-06, No Iterations 18
DICPCG:  Solving for p, Initial residual = 0.00197567, Final residual = 8.83619e-05, No Iterations 183
time step continuity errors : sum local = 1.25066e-08, global = 1.16573e-20, cumulative = -1.57307e-18
DICPCG:  Solving for p, Initial residual = 0.00181923, Final residual = 9.63064e-07, No Iterations 227
time step continuity errors : sum local = 1.36389e-10, global = 9.66166e-20, cumulative = -1.47646e-18
ExecutionTime = 22.95 s  ClockTime = 23 s

Time = 0.068125

Courant Number mean: 0.177143 max: 0.976786
[...]
ExecutionTime = 139.78 s  ClockTime = 140 s

Time = 0.48375

Courant Number mean: 0.225656 max: 0.981567
smoothSolver:  Solving for Ux, Initial residual = 1.45185e-05, Final residual = 8.07507e-06, No Iterations 2
smoothSolver:  Solving for Uy, Initial residual = 2.1215e-05, Final residual = 8.80151e-06, No Iterations 3
DICPCG:  Solving for p, Initial residual = 0.000105095, Final residual = 4.84526e-06, No Iterations 146
time step continuity errors : sum local = 6.92385e-10, global = -4.96033e-20, cumulative = -5.87831e-18
DICPCG:  Solving for p, Initial residual = 0.000104956, Final residual = 9.90155e-07, No Iterations 182
time step continuity errors : sum local = 1.40931e-10, global = 8.78425e-20, cumulative = -5.79047e-18
ExecutionTime = 139.94 s  ClockTime = 140 s

Time = 0.484375

Courant Number mean: 0.22566 max: 0.981567
smoothSolver:  Solving for Ux, Initial residual = 1.44587e-05, Final residual = 8.04237e-06, No Iterations 2
smoothSolver:  Solving for Uy, Initial residual = 2.11518e-05, Final residual = 8.77487e-06, No Iterations 3
DICPCG:  Solving for p, Initial residual = 0.000104502, Final residual = 5.1707e-06, No Iterations 172
time step continuity errors : sum local = 7.36272e-10, global = -1.1037e-19, cumulative = -5.90084e-18
DICPCG:  Solving for p, Initial residual = 0.000104421, Final residual = 9.22704e-07, No Iterations 183
time step continuity errors : sum local = 1.31591e-10, global = -8.36601e-20, cumulative = -5.9845e-18
ExecutionTime = 140.11 s  ClockTime = 140 s

Time = 0.485

Courant Number mean: 0.225663 max: 0.981567
smoothSolver:  Solving for Ux, Initial residual = 1.44095e-05, Final residual = 8.01453e-06, No Iterations 2
smoothSolver:  Solving for Uy, Initial residual = 2.10519e-05, Final residual = 8.73377e-06, No Iterations 3
DICPCG:  Solving for p, Initial residual = 0.000104678, Final residual = 5.04433e-06, No Iterations 144
time step continuity errors : sum local = 7.19908e-10, global = 7.62882e-20, cumulative = -5.90821e-18
DICPCG:  Solving for p, Initial residual = 0.00010434, Final residual = 8.45434e-07, No Iterations 183
time step continuity errors : sum local = 1.20394e-10, global = 4.59601e-20, cumulative = -5.86225e-18
ExecutionTime = 140.27 s  ClockTime = 140 s

Time = 0.485625

Courant Number mean: 0.225667 max: 0.981567
smoothSolver:  Solving for Ux, Initial residual = 1.43504e-05, Final residual = 7.98221e-06, No Iterations 2
smoothSolver:  Solving for Uy, Initial residual = 2.09886e-05, Final residual = 8.7072e-06, No Iterations 3
DICPCG:  Solving for p, Initial residual = 0.000103596, Final residual = 4.95884e-06, No Iterations 171
time step continuity errors : sum local = 7.05973e-10, global = 1.20989e-19, cumulative = -5.74126e-18
DICPCG:  Solving for p, Initial residual = 0.000103546, Final residual = 7.71593e-07, No Iterations 183
time step continuity errors : sum local = 1.10102e-10, global = 2.71221e-19, cumulative = -5.47004e-18
ExecutionTime = 140.43 s  ClockTime = 140 s

Time = 0.48625

Courant Number mean: 0.22567 max: 0.981567
smoothSolver:  Solving for Ux, Initial residual = 1.42994e-05, Final residual = 7.95325e-06, No Iterations 2
smoothSolver:  Solving for Uy, Initial residual = 2.08882e-05, Final residual = 8.66591e-06, No Iterations 3
DICPCG:  Solving for p, Initial residual = 0.000103652, Final residual = 5.05703e-06, No Iterations 145
time step continuity errors : sum local = 7.22107e-10, global = -2.54063e-20, cumulative = -5.49545e-18
DICPCG:  Solving for p, Initial residual = 0.000103334, Final residual = 8.48191e-07, No Iterations 183
time step continuity errors : sum local = 1.20765e-10, global = -3.91272e-20, cumulative = -5.53457e-18
ExecutionTime = 140.6 s  ClockTime = 141 s

Time = 0.486875

Courant Number mean: 0.225674 max: 0.981568
smoothSolver:  Solving for Ux, Initial residual = 1.424e-05, Final residual = 7.92084e-06, No Iterations 2
smoothSolver:  Solving for Uy, Initial residual = 2.08273e-05, Final residual = 8.64018e-06, No Iterations 3
DICPCG:  Solving for p, Initial residual = 0.000102661, Final residual = 5.07995e-06, No Iterations 173
time step continuity errors : sum local = 7.23447e-10, global = -2.61704e-20, cumulative = -5.56074e-18
DICPCG:  Solving for p, Initial residual = 0.000102697, Final residual = 9.00462e-07, No Iterations 183
time step continuity errors : sum local = 1.28375e-10, global = 9.039e-20, cumulative = -5.47035e-18
ExecutionTime = 140.76 s  ClockTime = 141 s

Time = 0.4875

Courant Number mean: 0.225677 max: 0.981568
smoothSolver:  Solving for Ux, Initial residual = 1.4191e-05, Final residual = 7.893e-06, No Iterations 2
smoothSolver:  Solving for Uy, Initial residual = 2.07298e-05, Final residual = 8.60011e-06, No Iterations 3
DICPCG:  Solving for p, Initial residual = 0.000102856, Final residual = 4.85461e-06, No Iterations 144
time step continuity errors : sum local = 6.92755e-10, global = -1.31062e-20, cumulative = -5.48346e-18
DICPCG:  Solving for p, Initial residual = 0.00010269, Final residual = 9.47507e-07, No Iterations 182
time step continuity errors : sum local = 1.34904e-10, global = -4.63536e-20, cumulative = -5.52981e-18
ExecutionTime = 140.99 s  ClockTime = 141 s

Time = 0.488125

Courant Number mean: 0.225681 max: 0.981568
smoothSolver:  Solving for Ux, Initial residual = 1.4134e-05, Final residual = 7.86176e-06, No Iterations 2
smoothSolver:  Solving for Uy, Initial residual = 2.06663e-05, Final residual = 8.57352e-06, No Iterations 3
DICPCG:  Solving for p, Initial residual = 0.000101977, Final residual = 4.63405e-06, No Iterations 171
time step continuity errors : sum local = 6.59648e-10, global = 1.00349e-19, cumulative = -5.42947e-18
DICPCG:  Solving for p, Initial residual = 0.000101876, Final residual = 9.89766e-07, No Iterations 182
time step continuity errors : sum local = 1.41162e-10, global = 8.96769e-20, cumulative = -5.33979e-18
ExecutionTime = 141.16 s  ClockTime = 141 s

Time = 0.48875

Courant Number mean: 0.225684 max: 0.981568
smoothSolver:  Solving for Ux, Initial residual = 1.40826e-05, Final residual = 7.83264e-06, No Iterations 2
smoothSolver:  Solving for Uy, Initial residual = 2.05679e-05, Final residual = 8.53301e-06, No Iterations 3
DICPCG:  Solving for p, Initial residual = 0.00010194, Final residual = 4.87827e-06, No Iterations 145
time step continuity errors : sum local = 6.967e-10, global = 7.74201e-20, cumulative = -5.26237e-18
DICPCG:  Solving for p, Initial residual = 0.00010172, Final residual = 9.26328e-07, No Iterations 182
time step continuity errors : sum local = 1.31892e-10, global = -2.11326e-19, cumulative = -5.47369e-18
ExecutionTime = 141.32 s  ClockTime = 141 s

Time = 0.489375

Courant Number mean: 0.225687 max: 0.981568
smoothSolver:  Solving for Ux, Initial residual = 1.40245e-05, Final residual = 7.80098e-06, No Iterations 2
smoothSolver:  Solving for Uy, Initial residual = 2.05064e-05, Final residual = 8.50717e-06, No Iterations 3
DICPCG:  Solving for p, Initial residual = 0.000101037, Final residual = 4.86824e-06, No Iterations 173
time step continuity errors : sum local = 6.93347e-10, global = -6.54218e-20, cumulative = -5.53912e-18
DICPCG:  Solving for p, Initial residual = 0.000101089, Final residual = 8.22026e-07, No Iterations 183
time step continuity errors : sum local = 1.17209e-10, global = -1.05545e-19, cumulative = -5.64466e-18
ExecutionTime = 141.49 s  ClockTime = 142 s

Time = 0.49

Courant Number mean: 0.225691 max: 0.981569
smoothSolver:  Solving for Ux, Initial residual = 1.39765e-05, Final residual = 7.77368e-06, No Iterations 2
smoothSolver:  Solving for Uy, Initial residual = 2.04106e-05, Final residual = 8.46766e-06, No Iterations 3
DICPCG:  Solving for p, Initial residual = 0.000101401, Final residual = 5.06555e-06, No Iterations 144
time step continuity errors : sum local = 7.22591e-10, global = 4.03981e-20, cumulative = -5.60426e-18
DICPCG:  Solving for p, Initial residual = 0.000101183, Final residual = 9.63853e-07, No Iterations 182
time step continuity errors : sum local = 1.3722e-10, global = -1.46183e-19, cumulative = -5.75045e-18
ExecutionTime = 141.65 s  ClockTime = 142 s

Time = 0.490625

Courant Number mean: 0.225694 max: 0.981569
smoothSolver:  Solving for Ux, Initial residual = 1.39202e-05, Final residual = 7.74282e-06, No Iterations 2
smoothSolver:  Solving for Uy, Initial residual = 2.03484e-05, Final residual = 8.44163e-06, No Iterations 3
DICPCG:  Solving for p, Initial residual = 0.000100562, Final residual = 4.59985e-06, No Iterations 171
time step continuity errors : sum local = 6.54867e-10, global = -1.07571e-20, cumulative = -5.7612e-18
DICPCG:  Solving for p, Initial residual = 0.000100389, Final residual = 9.878e-07, No Iterations 182
time step continuity errors : sum local = 1.40886e-10, global = -1.01171e-19, cumulative = -5.86237e-18
ExecutionTime = 141.81 s  ClockTime = 142 s

Time = 0.49125

Courant Number mean: 0.225698 max: 0.981569
smoothSolver:  Solving for Ux, Initial residual = 1.38693e-05, Final residual = 7.71401e-06, No Iterations 2
smoothSolver:  Solving for Uy, Initial residual = 2.0251e-05, Final residual = 8.40162e-06, No Iterations 3
DICPCG:  Solving for p, Initial residual = 0.000100178, Final residual = 4.84976e-06, No Iterations 146
time step continuity errors : sum local = 6.92825e-10, global = 1.5162e-19, cumulative = -5.71075e-18
DICPCG:  Solving for p, Initial residual = 0.000100031, Final residual = 9.09206e-07, No Iterations 182
time step continuity errors : sum local = 1.29409e-10, global = -5.55578e-20, cumulative = -5.76631e-18
ExecutionTime = 141.98 s  ClockTime = 142 s

Time = 0.491875

Courant Number mean: 0.225701 max: 0.981569
smoothSolver:  Solving for Ux, Initial residual = 1.38118e-05, Final residual = 7.68256e-06, No Iterations 2
smoothSolver:  Solving for Uy, Initial residual = 2.0191e-05, Final residual = 8.37624e-06, No Iterations 3
DICPCG:  Solving for p, Initial residual = 9.97237e-05, Final residual = 4.9318e-06, No Iterations 172
time step continuity errors : sum local = 7.02365e-10, global = -1.0004e-19, cumulative = -5.86635e-18
DICPCG:  Solving for p, Initial residual = 9.9643e-05, Final residual = 8.82253e-07, No Iterations 183
time step continuity errors : sum local = 1.25847e-10, global = -3.37188e-20, cumulative = -5.90007e-18
ExecutionTime = 142.15 s  ClockTime = 142 s

Time = 0.4925

Courant Number mean: 0.225704 max: 0.981569
smoothSolver:  Solving for Ux, Initial residual = 1.37648e-05, Final residual = 7.65598e-06, No Iterations 2
smoothSolver:  Solving for Uy, Initial residual = 2.00951e-05, Final residual = 8.33689e-06, No Iterations 3
DICPCG:  Solving for p, Initial residual = 9.99112e-05, Final residual = 4.79096e-06, No Iterations 144
time step continuity errors : sum local = 6.83808e-10, global = -7.97369e-20, cumulative = -5.97981e-18
DICPCG:  Solving for p, Initial residual = 9.95776e-05, Final residual = 9.30468e-07, No Iterations 182
time step continuity errors : sum local = 1.32469e-10, global = -7.4158e-20, cumulative = -6.05397e-18
ExecutionTime = 142.31 s  ClockTime = 142 s

Time = 0.493125

Courant Number mean: 0.225708 max: 0.981569
smoothSolver:  Solving for Ux, Initial residual = 1.37084e-05, Final residual = 7.62507e-06, No Iterations 2
smoothSolver:  Solving for Uy, Initial residual = 2.00353e-05, Final residual = 8.3117e-06, No Iterations 3
DICPCG:  Solving for p, Initial residual = 9.88217e-05, Final residual = 4.83059e-06, No Iterations 171
time step continuity errors : sum local = 6.87538e-10, global = 4.90215e-20, cumulative = -6.00494e-18
DICPCG:  Solving for p, Initial residual = 9.87952e-05, Final residual = 7.41123e-07, No Iterations 183
time step continuity errors : sum local = 1.05754e-10, global = 5.53931e-20, cumulative = -5.94955e-18
ExecutionTime = 142.48 s  ClockTime = 143 s

Time = 0.49375

Courant Number mean: 0.225711 max: 0.98157
smoothSolver:  Solving for Ux, Initial residual = 1.36599e-05, Final residual = 7.59754e-06, No Iterations 2
smoothSolver:  Solving for Uy, Initial residual = 1.99389e-05, Final residual = 8.27208e-06, No Iterations 3
DICPCG:  Solving for p, Initial residual = 9.90403e-05, Final residual = 4.64855e-06, No Iterations 145
time step continuity errors : sum local = 6.63888e-10, global = 2.72285e-20, cumulative = -5.92232e-18
DICPCG:  Solving for p, Initial residual = 9.87254e-05, Final residual = 9.40063e-07, No Iterations 182
time step continuity errors : sum local = 1.3385e-10, global = 9.46321e-20, cumulative = -5.82769e-18
ExecutionTime = 142.64 s  ClockTime = 143 s

Time = 0.494375

Courant Number mean: 0.225715 max: 0.98157
smoothSolver:  Solving for Ux, Initial residual = 1.36032e-05, Final residual = 7.56665e-06, No Iterations 2
smoothSolver:  Solving for Uy, Initial residual = 1.9881e-05, Final residual = 8.24766e-06, No Iterations 3
DICPCG:  Solving for p, Initial residual = 9.8009e-05, Final residual = 4.68769e-06, No Iterations 173
time step continuity errors : sum local = 6.67563e-10, global = 5.37463e-20, cumulative = -5.77394e-18
DICPCG:  Solving for p, Initial residual = 9.80003e-05, Final residual = 8.57126e-07, No Iterations 183
time step continuity errors : sum local = 1.22226e-10, global = 9.54505e-20, cumulative = -5.67849e-18
ExecutionTime = 142.8 s  ClockTime = 143 s

Time = 0.495

Courant Number mean: 0.225718 max: 0.98157
smoothSolver:  Solving for Ux, Initial residual = 1.35564e-05, Final residual = 7.54004e-06, No Iterations 2
smoothSolver:  Solving for Uy, Initial residual = 1.97871e-05, Final residual = 8.20912e-06, No Iterations 3
DICPCG:  Solving for p, Initial residual = 9.81617e-05, Final residual = 4.57253e-06, No Iterations 144
time step continuity errors : sum local = 6.52512e-10, global = 2.36706e-20, cumulative = -5.65482e-18
DICPCG:  Solving for p, Initial residual = 9.79979e-05, Final residual = 9.40481e-07, No Iterations 182
time step continuity errors : sum local = 1.33916e-10, global = 1.08558e-19, cumulative = -5.54627e-18
ExecutionTime = 142.96 s  ClockTime = 143 s

Time = 0.495625

Courant Number mean: 0.225721 max: 0.98157
smoothSolver:  Solving for Ux, Initial residual = 1.35018e-05, Final residual = 7.51008e-06, No Iterations 2
smoothSolver:  Solving for Uy, Initial residual = 1.97273e-05, Final residual = 8.184e-06, No Iterations 3
DICPCG:  Solving for p, Initial residual = 9.74425e-05, Final residual = 4.50996e-06, No Iterations 171
time step continuity errors : sum local = 6.41998e-10, global = 1.21647e-19, cumulative = -5.42462e-18
DICPCG:  Solving for p, Initial residual = 9.7289e-05, Final residual = 9.50992e-07, No Iterations 182
time step continuity errors : sum local = 1.35624e-10, global = -1.84929e-20, cumulative = -5.44311e-18
ExecutionTime = 143.13 s  ClockTime = 143 s

Time = 0.49625

Courant Number mean: 0.225724 max: 0.98157
smoothSolver:  Solving for Ux, Initial residual = 1.34525e-05, Final residual = 7.48224e-06, No Iterations 2
smoothSolver:  Solving for Uy, Initial residual = 1.9633e-05, Final residual = 8.14521e-06, No Iterations 3
DICPCG:  Solving for p, Initial residual = 9.72059e-05, Final residual = 4.82872e-06, No Iterations 145
time step continuity errors : sum local = 6.89553e-10, global = -4.10334e-20, cumulative = -5.48414e-18
DICPCG:  Solving for p, Initial residual = 9.70213e-05, Final residual = 8.96719e-07, No Iterations 182
time step continuity errors : sum local = 1.27687e-10, global = -9.18555e-20, cumulative = -5.576e-18
ExecutionTime = 143.29 s  ClockTime = 143 s

Time = 0.496875

Courant Number mean: 0.225728 max: 0.98157
smoothSolver:  Solving for Ux, Initial residual = 1.33972e-05, Final residual = 9.98303e-06, No Iterations 1
smoothSolver:  Solving for Uy, Initial residual = 1.95749e-05, Final residual = 8.12069e-06, No Iterations 3
DICPCG:  Solving for p, Initial residual = 0.000222283, Final residual = 1.04516e-05, No Iterations 145
time step continuity errors : sum local = 1.49534e-09, global = -4.78434e-20, cumulative = -5.62384e-18
DICPCG:  Solving for p, Initial residual = 0.000223696, Final residual = 9.15427e-07, No Iterations 196
time step continuity errors : sum local = 1.30593e-10, global = 4.66502e-20, cumulative = -5.57719e-18
ExecutionTime = 143.45 s  ClockTime = 144 s

Time = 0.4975

Courant Number mean: 0.225731 max: 0.981571
smoothSolver:  Solving for Ux, Initial residual = 1.35151e-05, Final residual = 7.48964e-06, No Iterations 2
smoothSolver:  Solving for Uy, Initial residual = 1.94542e-05, Final residual = 8.04604e-06, No Iterations 3
DICPCG:  Solving for p, Initial residual = 0.000100505, Final residual = 4.64645e-06, No Iterations 169
time step continuity errors : sum local = 6.61848e-10, global = 1.55385e-19, cumulative = -5.42181e-18
DICPCG:  Solving for p, Initial residual = 9.86758e-05, Final residual = 9.08065e-07, No Iterations 185
time step continuity errors : sum local = 1.29569e-10, global = 1.53107e-19, cumulative = -5.2687e-18
ExecutionTime = 143.62 s  ClockTime = 144 s

Time = 0.498125

Courant Number mean: 0.225734 max: 0.981571
smoothSolver:  Solving for Ux, Initial residual = 1.33363e-05, Final residual = 9.93283e-06, No Iterations 1
smoothSolver:  Solving for Uy, Initial residual = 1.93793e-05, Final residual = 8.03383e-06, No Iterations 3
DICPCG:  Solving for p, Initial residual = 0.000220412, Final residual = 1.02948e-05, No Iterations 144
time step continuity errors : sum local = 1.46815e-09, global = 8.01967e-20, cumulative = -5.1885e-18
DICPCG:  Solving for p, Initial residual = 0.000221716, Final residual = 9.90851e-07, No Iterations 186
time step continuity errors : sum local = 1.41404e-10, global = -7.44494e-20, cumulative = -5.26295e-18
ExecutionTime = 143.78 s  ClockTime = 144 s

Time = 0.49875

Courant Number mean: 0.225737 max: 0.981571
smoothSolver:  Solving for Ux, Initial residual = 1.34612e-05, Final residual = 7.45782e-06, No Iterations 2
smoothSolver:  Solving for Uy, Initial residual = 1.93019e-05, Final residual = 7.97981e-06, No Iterations 3
DICPCG:  Solving for p, Initial residual = 0.000100996, Final residual = 4.33419e-06, No Iterations 147
time step continuity errors : sum local = 6.22473e-10, global = -4.10602e-20, cumulative = -5.30401e-18
DICPCG:  Solving for p, Initial residual = 9.9268e-05, Final residual = 8.54528e-07, No Iterations 183
time step continuity errors : sum local = 1.21998e-10, global = -8.01689e-20, cumulative = -5.38418e-18
ExecutionTime = 143.95 s  ClockTime = 144 s

Time = 0.499375

Courant Number mean: 0.22574 max: 0.981571
smoothSolver:  Solving for Ux, Initial residual = 1.3271e-05, Final residual = 9.88317e-06, No Iterations 1
smoothSolver:  Solving for Uy, Initial residual = 1.92473e-05, Final residual = 7.97755e-06, No Iterations 3
DICPCG:  Solving for p, Initial residual = 0.000218892, Final residual = 1.06506e-05, No Iterations 171
time step continuity errors : sum local = 1.5171e-09, global = -1.27458e-19, cumulative = -5.51164e-18
DICPCG:  Solving for p, Initial residual = 0.000220008, Final residual = 9.71806e-07, No Iterations 191
time step continuity errors : sum local = 1.38755e-10, global = 1.90436e-19, cumulative = -5.32121e-18
ExecutionTime = 144.12 s  ClockTime = 144 s

Time = 0.5

Courant Number mean: 0.225743 max: 0.981572
smoothSolver:  Solving for Ux, Initial residual = 1.33678e-05, Final residual = 9.93632e-06, No Iterations 1
smoothSolver:  Solving for Uy, Initial residual = 1.91114e-05, Final residual = 7.9002e-06, No Iterations 3
DICPCG:  Solving for p, Initial residual = 0.000220598, Final residual = 1.05609e-05, No Iterations 145
time step continuity errors : sum local = 1.50673e-09, global = -8.35291e-20, cumulative = -5.40473e-18
DICPCG:  Solving for p, Initial residual = 0.000220943, Final residual = 8.70623e-07, No Iterations 188
time step continuity errors : sum local = 1.24316e-10, global = 8.17962e-20, cumulative = -5.32294e-18
ExecutionTime = 144.34 s  ClockTime = 144 s

End

