/*---------------------------------------------------------------------------*\
  =========                 |
  \\      /  F ield         | OpenFOAM: The Open Source CFD Toolbox
   \\    /   O peration     | Website:  https://openfoam.org
    \\  /    A nd           | Version:  7
     \\/     M anipulation  |
\*---------------------------------------------------------------------------*/
Build  : 7
Exec   : icoFoam
Date   : Feb 21 2024
Time   : 16:12:32
Host   : "c211-026.frontera.tacc.utexas.edu"
PID    : 166108
I/O    : uncollated
Case   : /work2/09042/mihiro10/frontera/COE-347-SP24/mainclassrepo/OpenFOAM/v7/cavity/cavity_80x80
nProcs : 1
sigFpe : Enabling floating point exception trapping (FOAM_SIGFPE).
fileModificationChecking : Monitoring run-time modified files using timeStampMaster (fileModificationSkew 10)
allowSystemOperations : Allowing user-supplied system call operations

// * * * * * * * * * * * * * * * * * * * * * * * * * * * * * * * * * * * * * //
Create time

Create mesh for time = 0

Reading transportProperties

Reading field p

Reading field U

Reading/calculating face flux field phi


Starting time loop

Time = 0.00125

Courant Number mean: 0 max: 0
smoothSolver:  Solving for Ux, Initial residual = 1, Final residual = 9.48242e-06, No Iterations 66
smoothSolver:  Solving for Uy, Initial residual = 0, Final residual = 0, No Iterations 0
DICPCG:  Solving for p, Initial residual = 1, Final residual = 0.0455602, No Iterations 95
time step continuity errors : sum local = 3.96614e-05, global = 3.52379e-20, cumulative = 3.52379e-20
DICPCG:  Solving for p, Initial residual = 0.66603, Final residual = 7.02261e-07, No Iterations 139
time step continuity errors : sum local = 9.33326e-10, global = -1.85454e-19, cumulative = -1.50216e-19
ExecutionTime = 0.07 s  ClockTime = 0 s

Time = 0.0025

Courant Number mean: 0.0638197 max: 0.788021
smoothSolver:  Solving for Ux, Initial residual = 0.124505, Final residual = 9.82456e-06, No Iterations 68
smoothSolver:  Solving for Uy, Initial residual = 0.367293, Final residual = 8.87817e-06, No Iterations 78
DICPCG:  Solving for p, Initial residual = 0.717888, Final residual = 0.0352598, No Iterations 47
time step continuity errors : sum local = 6.03682e-05, global = 2.42695e-19, cumulative = 9.24791e-20
DICPCG:  Solving for p, Initial residual = 0.65761, Final residual = 8.04346e-07, No Iterations 138
time step continuity errors : sum local = 1.2192e-09, global = -4.41385e-20, cumulative = 4.83406e-20
ExecutionTime = 0.12 s  ClockTime = 0 s

Time = 0.00375

Courant Number mean: 0.0964275 max: 0.911225
smoothSolver:  Solving for Ux, Initial residual = 0.0502889, Final residual = 9.80603e-06, No Iterations 57
smoothSolver:  Solving for Uy, Initial residual = 0.177567, Final residual = 9.30311e-06, No Iterations 71
DICPCG:  Solving for p, Initial residual = 0.722018, Final residual = 0.0348741, No Iterations 89
time step continuity errors : sum local = 4.96371e-05, global = 4.23516e-20, cumulative = 9.06923e-20
DICPCG:  Solving for p, Initial residual = 0.47929, Final residual = 7.56631e-07, No Iterations 132
time step continuity errors : sum local = 1.5071e-09, global = 5.15678e-20, cumulative = 1.4226e-19
ExecutionTime = 0.17 s  ClockTime = 0 s

Time = 0.005

Courant Number mean: 0.114109 max: 0.919396
smoothSolver:  Solving for Ux, Initial residual = 0.0333495, Final residual = 8.97394e-06, No Iterations 58
smoothSolver:  Solving for Uy, Initial residual = 0.110843, Final residual = 9.51524e-06, No Iterations 68
DICPCG:  Solving for p, Initial residual = 0.58769, Final residual = 0.0219021, No Iterations 88
time step continuity errors : sum local = 2.72127e-05, global = 1.65147e-19, cumulative = 3.07407e-19
DICPCG:  Solving for p, Initial residual = 0.45147, Final residual = 8.95438e-07, No Iterations 132
time step continuity errors : sum local = 1.32239e-09, global = -2.24628e-20, cumulative = 2.84944e-19
ExecutionTime = 0.21 s  ClockTime = 1 s

Time = 0.00625

Courant Number mean: 0.127613 max: 0.932631
smoothSolver:  Solving for Ux, Initial residual = 0.0209514, Final residual = 9.87375e-06, No Iterations 54
smoothSolver:  Solving for Uy, Initial residual = 0.061239, Final residual = 9.47134e-06, No Iterations 65
DICPCG:  Solving for p, Initial residual = 0.47951, Final residual = 0.0212184, No Iterations 76
time step continuity errors : sum local = 1.98854e-05, global = 1.32142e-20, cumulative = 2.98158e-19
DICPCG:  Solving for p, Initial residual = 0.403482, Final residual = 7.11644e-07, No Iterations 135
time step continuity errors : sum local = 7.24413e-10, global = -9.4234e-21, cumulative = 2.88735e-19
ExecutionTime = 0.26 s  ClockTime = 1 s

Time = 0.0075

Courant Number mean: 0.138226 max: 0.937646
smoothSolver:  Solving for Ux, Initial residual = 0.0154617, Final residual = 9.17279e-06, No Iterations 54
smoothSolver:  Solving for Uy, Initial residual = 0.0397295, Final residual = 9.05715e-06, No Iterations 63
DICPCG:  Solving for p, Initial residual = 0.331133, Final residual = 0.0150252, No Iterations 87
time step continuity errors : sum local = 1.18218e-05, global = -1.02198e-19, cumulative = 1.86536e-19
DICPCG:  Solving for p, Initial residual = 0.28999, Final residual = 8.14574e-07, No Iterations 130
time step continuity errors : sum local = 6.70422e-10, global = 1.2e-19, cumulative = 3.06536e-19
ExecutionTime = 0.3 s  ClockTime = 1 s

Time = 0.00875

Courant Number mean: 0.147014 max: 0.94178
smoothSolver:  Solving for Ux, Initial residual = 0.0112875, Final residual = 9.31655e-06, No Iterations 52
smoothSolver:  Solving for Uy, Initial residual = 0.0304162, Final residual = 8.9005e-06, No Iterations 62
DICPCG:  Solving for p, Initial residual = 0.20294, Final residual = 0.00947895, No Iterations 34
time step continuity errors : sum local = 7.33013e-06, global = 1.58951e-19, cumulative = 4.65487e-19
DICPCG:  Solving for p, Initial residual = 0.184125, Final residual = 9.30063e-07, No Iterations 129
time step continuity errors : sum local = 6.26695e-10, global = 6.73738e-20, cumulative = 5.3286e-19
ExecutionTime = 0.34 s  ClockTime = 1 s

Time = 0.01

Courant Number mean: 0.154479 max: 0.944969
smoothSolver:  Solving for Ux, Initial residual = 0.0105243, Final residual = 9.7789e-06, No Iterations 52
smoothSolver:  Solving for Uy, Initial residual = 0.0272275, Final residual = 9.2172e-06, No Iterations 61
DICPCG:  Solving for p, Initial residual = 0.160697, Final residual = 0.00799113, No Iterations 78
time step continuity errors : sum local = 5.26876e-06, global = 1.11925e-19, cumulative = 6.44786e-19
DICPCG:  Solving for p, Initial residual = 0.131539, Final residual = 8.25279e-07, No Iterations 129
time step continuity errors : sum local = 6.19704e-10, global = -8.85364e-20, cumulative = 5.56249e-19
ExecutionTime = 0.38 s  ClockTime = 1 s

Time = 0.01125

Courant Number mean: 0.160927 max: 0.947911
smoothSolver:  Solving for Ux, Initial residual = 0.00833581, Final residual = 9.71517e-06, No Iterations 50
smoothSolver:  Solving for Uy, Initial residual = 0.0233928, Final residual = 9.22864e-06, No Iterations 60
DICPCG:  Solving for p, Initial residual = 0.108462, Final residual = 0.00503169, No Iterations 75
time step continuity errors : sum local = 3.14131e-06, global = 2.65329e-19, cumulative = 8.21578e-19
DICPCG:  Solving for p, Initial residual = 0.0960873, Final residual = 9.79661e-07, No Iterations 128
time step continuity errors : sum local = 6.39882e-10, global = -1.06206e-19, cumulative = 7.15372e-19
ExecutionTime = 0.42 s  ClockTime = 1 s

Time = 0.0125

Courant Number mean: 0.166551 max: 0.949985
smoothSolver:  Solving for Ux, Initial residual = 0.00651996, Final residual = 9.23212e-06, No Iterations 49
smoothSolver:  Solving for Uy, Initial residual = 0.018185, Final residual = 9.64898e-06, No Iterations 58
DICPCG:  Solving for p, Initial residual = 0.0609629, Final residual = 0.00289187, No Iterations 75
time step continuity errors : sum local = 1.72344e-06, global = -1.49849e-19, cumulative = 5.65523e-19
DICPCG:  Solving for p, Initial residual = 0.0548713, Final residual = 9.41958e-07, No Iterations 127
time step continuity errors : sum local = 5.65446e-10, global = 5.20906e-20, cumulative = 6.17614e-19
ExecutionTime = 0.46 s  ClockTime = 1 s

Time = 0.01375

Courant Number mean: 0.171476 max: 0.951196
smoothSolver:  Solving for Ux, Initial residual = 0.00556948, Final residual = 9.32233e-06, No Iterations 48
smoothSolver:  Solving for Uy, Initial residual = 0.0155274, Final residual = 9.9375e-06, No Iterations 57
DICPCG:  Solving for p, Initial residual = 0.0527232, Final residual = 0.00224047, No Iterations 44
time step continuity errors : sum local = 1.59241e-06, global = -1.6317e-19, cumulative = 4.54444e-19
DICPCG:  Solving for p, Initial residual = 0.0490102, Final residual = 7.94564e-07, No Iterations 126
time step continuity errors : sum local = 4.67145e-10, global = 1.283e-19, cumulative = 5.82744e-19
ExecutionTime = 0.5 s  ClockTime = 1 s

Time = 0.015

Courant Number mean: 0.175876 max: 0.952738
smoothSolver:  Solving for Ux, Initial residual = 0.00552222, Final residual = 9.8272e-06, No Iterations 48
smoothSolver:  Solving for Uy, Initial residual = 0.0133236, Final residual = 9.3146e-06, No Iterations 56
DICPCG:  Solving for p, Initial residual = 0.0443007, Final residual = 0.00207943, No Iterations 91
time step continuity errors : sum local = 1.22056e-06, global = -2.35416e-19, cumulative = 3.47328e-19
DICPCG:  Solving for p, Initial residual = 0.0394837, Final residual = 6.02583e-07, No Iterations 128
time step continuity errors : sum local = 3.71944e-10, global = 1.79299e-19, cumulative = 5.26628e-19
ExecutionTime = 0.54 s  ClockTime = 1 s

Time = 0.01625

Courant Number mean: 0.179825 max: 0.95396
smoothSolver:  Solving for Ux, Initial residual = 0.00450378, Final residual = 8.78477e-06, No Iterations 47
smoothSolver:  Solving for Uy, Initial residual = 0.0126717, Final residual = 9.15571e-06, No Iterations 56
DICPCG:  Solving for p, Initial residual = 0.0337846, Final residual = 0.00129304, No Iterations 91
time step continuity errors : sum local = 7.48206e-07, global = 1.3927e-19, cumulative = 6.65898e-19
DICPCG:  Solving for p, Initial residual = 0.0307366, Final residual = 9.7962e-07, No Iterations 125
time step continuity errors : sum local = 5.77579e-10, global = -8.44402e-20, cumulative = 5.81457e-19
ExecutionTime = 0.58 s  ClockTime = 1 s

Time = 0.0175

Courant Number mean: 0.183369 max: 0.95493
smoothSolver:  Solving for Ux, Initial residual = 0.00396085, Final residual = 9.40825e-06, No Iterations 46
smoothSolver:  Solving for Uy, Initial residual = 0.0107114, Final residual = 9.00975e-06, No Iterations 55
DICPCG:  Solving for p, Initial residual = 0.0247378, Final residual = 0.00111972, No Iterations 91
time step continuity errors : sum local = 6.44113e-07, global = 1.11797e-19, cumulative = 6.93254e-19
DICPCG:  Solving for p, Initial residual = 0.0226282, Final residual = 9.48798e-07, No Iterations 124
time step continuity errors : sum local = 5.49122e-10, global = 2.22333e-19, cumulative = 9.15587e-19
ExecutionTime = 0.62 s  ClockTime = 1 s

Time = 0.01875

Courant Number mean: 0.18657 max: 0.955797
smoothSolver:  Solving for Ux, Initial residual = 0.00353596, Final residual = 9.74123e-06, No Iterations 45
smoothSolver:  Solving for Uy, Initial residual = 0.00958826, Final residual = 9.37489e-06, No Iterations 54
DICPCG:  Solving for p, Initial residual = 0.0205352, Final residual = 0.000893365, No Iterations 44
time step continuity errors : sum local = 6.27287e-07, global = 2.54346e-19, cumulative = 1.16993e-18
DICPCG:  Solving for p, Initial residual = 0.0190281, Final residual = 9.45232e-07, No Iterations 122
time step continuity errors : sum local = 5.41899e-10, global = 3.65294e-20, cumulative = 1.20646e-18
ExecutionTime = 0.65 s  ClockTime = 1 s

Time = 0.02

Courant Number mean: 0.18949 max: 0.956542
smoothSolver:  Solving for Ux, Initial residual = 0.00336166, Final residual = 9.38845e-06, No Iterations 45
smoothSolver:  Solving for Uy, Initial residual = 0.00857596, Final residual = 9.30636e-06, No Iterations 53
DICPCG:  Solving for p, Initial residual = 0.0216013, Final residual = 0.00097286, No Iterations 91
time step continuity errors : sum local = 5.59701e-07, global = -4.0316e-20, cumulative = 1.16615e-18
DICPCG:  Solving for p, Initial residual = 0.0199561, Final residual = 7.59629e-07, No Iterations 126
time step continuity errors : sum local = 4.45598e-10, global = -1.77269e-19, cumulative = 9.88877e-19
ExecutionTime = 0.69 s  ClockTime = 1 s

Time = 0.02125

Courant Number mean: 0.192148 max: 0.957222
smoothSolver:  Solving for Ux, Initial residual = 0.00292625, Final residual = 9.22665e-06, No Iterations 44
smoothSolver:  Solving for Uy, Initial residual = 0.00810057, Final residual = 8.89318e-06, No Iterations 53
DICPCG:  Solving for p, Initial residual = 0.0181737, Final residual = 0.000907123, No Iterations 90
time step continuity errors : sum local = 5.19798e-07, global = 5.22551e-19, cumulative = 1.51143e-18
DICPCG:  Solving for p, Initial residual = 0.0169499, Final residual = 8.88949e-07, No Iterations 123
time step continuity errors : sum local = 5.13158e-10, global = -1.27001e-19, cumulative = 1.38443e-18
ExecutionTime = 0.73 s  ClockTime = 1 s

Time = 0.0225

Courant Number mean: 0.194573 max: 0.957788
smoothSolver:  Solving for Ux, Initial residual = 0.00263888, Final residual = 9.78162e-06, No Iterations 43
smoothSolver:  Solving for Uy, Initial residual = 0.00717694, Final residual = 9.06561e-06, No Iterations 52
DICPCG:  Solving for p, Initial residual = 0.013595, Final residual = 0.000519213, No Iterations 91
time step continuity errors : sum local = 2.96548e-07, global = 1.05454e-19, cumulative = 1.48988e-18
DICPCG:  Solving for p, Initial residual = 0.0126821, Final residual = 9.2171e-07, No Iterations 120
time step continuity errors : sum local = 5.28303e-10, global = -9.39746e-20, cumulative = 1.39591e-18
ExecutionTime = 0.77 s  ClockTime = 1 s

Time = 0.02375

Courant Number mean: 0.196787 max: 0.958296
smoothSolver:  Solving for Ux, Initial residual = 0.00240067, Final residual = 9.0065e-06, No Iterations 43
smoothSolver:  Solving for Uy, Initial residual = 0.00652624, Final residual = 9.49475e-06, No Iterations 51
DICPCG:  Solving for p, Initial residual = 0.0111329, Final residual = 0.000462387, No Iterations 43
time step continuity errors : sum local = 2.88947e-07, global = 3.09285e-19, cumulative = 1.70519e-18
DICPCG:  Solving for p, Initial residual = 0.0104191, Final residual = 8.71005e-07, No Iterations 120
time step continuity errors : sum local = 4.96242e-10, global = -3.09134e-20, cumulative = 1.67428e-18
ExecutionTime = 0.81 s  ClockTime = 1 s

Time = 0.025

Courant Number mean: 0.198823 max: 0.958751
smoothSolver:  Solving for Ux, Initial residual = 0.00221362, Final residual = 9.52667e-06, No Iterations 42
smoothSolver:  Solving for Uy, Initial residual = 0.00597932, Final residual = 9.83753e-06, No Iterations 50
DICPCG:  Solving for p, Initial residual = 0.0109713, Final residual = 0.000498461, No Iterations 78
time step continuity errors : sum local = 2.84457e-07, global = 1.31043e-20, cumulative = 1.68738e-18
DICPCG:  Solving for p, Initial residual = 0.0103506, Final residual = 8.50666e-07, No Iterations 121
time step continuity errors : sum local = 4.88818e-10, global = -3.04432e-19, cumulative = 1.38295e-18
ExecutionTime = 0.86 s  ClockTime = 1 s

Time = 0.02625

Courant Number mean: 0.2007 max: 0.959161
smoothSolver:  Solving for Ux, Initial residual = 0.00202981, Final residual = 8.79507e-06, No Iterations 42
smoothSolver:  Solving for Uy, Initial residual = 0.00553755, Final residual = 9.15108e-06, No Iterations 50
DICPCG:  Solving for p, Initial residual = 0.00925819, Final residual = 0.00042523, No Iterations 87
time step continuity errors : sum local = 2.42139e-07, global = -3.37696e-20, cumulative = 1.34918e-18
DICPCG:  Solving for p, Initial residual = 0.00872596, Final residual = 9.38259e-07, No Iterations 118
time step continuity errors : sum local = 5.3529e-10, global = 1.91408e-20, cumulative = 1.36832e-18
ExecutionTime = 0.89 s  ClockTime = 1 s

Time = 0.0275

Courant Number mean: 0.202432 max: 0.959542
smoothSolver:  Solving for Ux, Initial residual = 0.00184871, Final residual = 9.18293e-06, No Iterations 41
smoothSolver:  Solving for Uy, Initial residual = 0.00505337, Final residual = 9.50536e-06, No Iterations 49
DICPCG:  Solving for p, Initial residual = 0.00791673, Final residual = 0.00038236, No Iterations 86
time step continuity errors : sum local = 2.18847e-07, global = 1.24875e-19, cumulative = 1.4932e-18
DICPCG:  Solving for p, Initial residual = 0.00750363, Final residual = 8.88017e-07, No Iterations 118
time step continuity errors : sum local = 5.06389e-10, global = 1.22235e-19, cumulative = 1.61543e-18
ExecutionTime = 0.93 s  ClockTime = 1 s

Time = 0.02875

Courant Number mean: 0.204027 max: 0.95985
smoothSolver:  Solving for Ux, Initial residual = 0.00170613, Final residual = 9.71162e-06, No Iterations 40
smoothSolver:  Solving for Uy, Initial residual = 0.0046568, Final residual = 8.80944e-06, No Iterations 49
DICPCG:  Solving for p, Initial residual = 0.00778175, Final residual = 0.000360319, No Iterations 41
time step continuity errors : sum local = 2.22881e-07, global = -8.10992e-20, cumulative = 1.53433e-18
DICPCG:  Solving for p, Initial residual = 0.00743413, Final residual = 7.70934e-07, No Iterations 118
time step continuity errors : sum local = 4.40649e-10, global = 3.11112e-19, cumulative = 1.84544e-18
ExecutionTime = 0.96 s  ClockTime = 1 s

Time = 0.03

Courant Number mean: 0.205501 max: 0.960143
smoothSolver:  Solving for Ux, Initial residual = 0.00158369, Final residual = 9.03686e-06, No Iterations 40
smoothSolver:  Solving for Uy, Initial residual = 0.0043183, Final residual = 9.22262e-06, No Iterations 48
DICPCG:  Solving for p, Initial residual = 0.00762793, Final residual = 0.00033246, No Iterations 75
time step continuity errors : sum local = 1.90187e-07, global = -2.80798e-19, cumulative = 1.56465e-18
DICPCG:  Solving for p, Initial residual = 0.00716921, Final residual = 9.31742e-07, No Iterations 120
time step continuity errors : sum local = 5.32332e-10, global = -8.06979e-20, cumulative = 1.48395e-18
ExecutionTime = 1 s  ClockTime = 1 s

Time = 0.03125

Courant Number mean: 0.206863 max: 0.960411
smoothSolver:  Solving for Ux, Initial residual = 0.00145943, Final residual = 9.50208e-06, No Iterations 39
smoothSolver:  Solving for Uy, Initial residual = 0.00399927, Final residual = 9.73067e-06, No Iterations 47
DICPCG:  Solving for p, Initial residual = 0.00659114, Final residual = 0.000300415, No Iterations 36
time step continuity errors : sum local = 1.96317e-07, global = 2.00341e-19, cumulative = 1.68429e-18
DICPCG:  Solving for p, Initial residual = 0.00621996, Final residual = 7.21429e-07, No Iterations 119
time step continuity errors : sum local = 4.10738e-10, global = 1.65959e-19, cumulative = 1.85025e-18
ExecutionTime = 1.03 s  ClockTime = 1 s

Time = 0.0325

Courant Number mean: 0.208122 max: 0.960644
smoothSolver:  Solving for Ux, Initial residual = 0.00136354, Final residual = 8.90838e-06, No Iterations 39
smoothSolver:  Solving for Uy, Initial residual = 0.00371118, Final residual = 8.98114e-06, No Iterations 47
DICPCG:  Solving for p, Initial residual = 0.0068838, Final residual = 0.000292901, No Iterations 75
time step continuity errors : sum local = 1.67111e-07, global = 6.4334e-20, cumulative = 1.91458e-18
DICPCG:  Solving for p, Initial residual = 0.00650375, Final residual = 8.33981e-07, No Iterations 115
time step continuity errors : sum local = 4.76652e-10, global = 1.81687e-19, cumulative = 2.09627e-18
ExecutionTime = 1.07 s  ClockTime = 1 s

Time = 0.03375

Courant Number mean: 0.209289 max: 0.960872
smoothSolver:  Solving for Ux, Initial residual = 0.00125518, Final residual = 9.30819e-06, No Iterations 38
smoothSolver:  Solving for Uy, Initial residual = 0.00345381, Final residual = 9.51634e-06, No Iterations 46
DICPCG:  Solving for p, Initial residual = 0.00580729, Final residual = 0.000273931, No Iterations 74
time step continuity errors : sum local = 1.56567e-07, global = -1.08501e-21, cumulative = 2.09518e-18
DICPCG:  Solving for p, Initial residual = 0.00545432, Final residual = 8.78381e-07, No Iterations 112
time step continuity errors : sum local = 5.00686e-10, global = -1.52792e-19, cumulative = 1.94239e-18
ExecutionTime = 1.1 s  ClockTime = 1 s

Time = 0.035

Courant Number mean: 0.210373 max: 0.961052
smoothSolver:  Solving for Ux, Initial residual = 0.00116543, Final residual = 9.95615e-06, No Iterations 37
smoothSolver:  Solving for Uy, Initial residual = 0.00318413, Final residual = 8.83174e-06, No Iterations 46
DICPCG:  Solving for p, Initial residual = 0.00526031, Final residual = 0.000233031, No Iterations 87
time step continuity errors : sum local = 1.33097e-07, global = -3.61594e-20, cumulative = 1.90623e-18
DICPCG:  Solving for p, Initial residual = 0.00497791, Final residual = 9.89245e-07, No Iterations 111
time step continuity errors : sum local = 5.63428e-10, global = -9.31449e-20, cumulative = 1.81309e-18
ExecutionTime = 1.14 s  ClockTime = 1 s

Time = 0.03625

Courant Number mean: 0.211382 max: 0.961241
smoothSolver:  Solving for Ux, Initial residual = 0.00107312, Final residual = 9.18519e-06, No Iterations 37
smoothSolver:  Solving for Uy, Initial residual = 0.00295184, Final residual = 9.33008e-06, No Iterations 45
DICPCG:  Solving for p, Initial residual = 0.00463521, Final residual = 0.000216426, No Iterations 36
time step continuity errors : sum local = 1.33266e-07, global = -2.17081e-19, cumulative = 1.59601e-18
DICPCG:  Solving for p, Initial residual = 0.00438979, Final residual = 7.99643e-07, No Iterations 111
time step continuity errors : sum local = 4.55915e-10, global = -9.11658e-20, cumulative = 1.50484e-18
ExecutionTime = 1.17 s  ClockTime = 1 s

Time = 0.0375

Courant Number mean: 0.212319 max: 0.961397
smoothSolver:  Solving for Ux, Initial residual = 0.00100022, Final residual = 9.76292e-06, No Iterations 36
smoothSolver:  Solving for Uy, Initial residual = 0.00275686, Final residual = 9.88704e-06, No Iterations 44
DICPCG:  Solving for p, Initial residual = 0.00481019, Final residual = 0.000173945, No Iterations 75
time step continuity errors : sum local = 9.9233e-08, global = -1.87331e-19, cumulative = 1.31751e-18
DICPCG:  Solving for p, Initial residual = 0.00454608, Final residual = 7.8062e-07, No Iterations 113
time step continuity errors : sum local = 4.44515e-10, global = 2.34923e-19, cumulative = 1.55243e-18
ExecutionTime = 1.2 s  ClockTime = 2 s

Time = 0.03875

Courant Number mean: 0.213191 max: 0.96155
smoothSolver:  Solving for Ux, Initial residual = 0.000934536, Final residual = 9.12703e-06, No Iterations 36
smoothSolver:  Solving for Uy, Initial residual = 0.0025608, Final residual = 9.18697e-06, No Iterations 44
DICPCG:  Solving for p, Initial residual = 0.00359361, Final residual = 0.000160225, No Iterations 43
time step continuity errors : sum local = 1.09812e-07, global = -5.67149e-20, cumulative = 1.49572e-18
DICPCG:  Solving for p, Initial residual = 0.00337741, Final residual = 9.67064e-07, No Iterations 113
time step continuity errors : sum local = 5.50255e-10, global = -2.56743e-19, cumulative = 1.23897e-18
ExecutionTime = 1.23 s  ClockTime = 2 s

Time = 0.04

Courant Number mean: 0.214004 max: 0.961684
smoothSolver:  Solving for Ux, Initial residual = 0.00088928, Final residual = 9.85099e-06, No Iterations 35
smoothSolver:  Solving for Uy, Initial residual = 0.00236146, Final residual = 9.57562e-06, No Iterations 43
DICPCG:  Solving for p, Initial residual = 0.00429465, Final residual = 0.000204387, No Iterations 76
time step continuity errors : sum local = 1.16795e-07, global = -6.25342e-20, cumulative = 1.17644e-18
DICPCG:  Solving for p, Initial residual = 0.00403804, Final residual = 7.91385e-07, No Iterations 113
time step continuity errors : sum local = 4.52054e-10, global = 3.31605e-20, cumulative = 1.2096e-18
ExecutionTime = 1.27 s  ClockTime = 2 s

Time = 0.04125

Courant Number mean: 0.214759 max: 0.96181
smoothSolver:  Solving for Ux, Initial residual = 0.000811764, Final residual = 8.99183e-06, No Iterations 35
smoothSolver:  Solving for Uy, Initial residual = 0.00225167, Final residual = 9.13412e-06, No Iterations 43
DICPCG:  Solving for p, Initial residual = 0.00362779, Final residual = 0.000171116, No Iterations 85
time step continuity errors : sum local = 9.74564e-08, global = -7.0797e-20, cumulative = 1.1388e-18
DICPCG:  Solving for p, Initial residual = 0.00341627, Final residual = 9.57678e-07, No Iterations 111
time step continuity errors : sum local = 5.4525e-10, global = 7.11278e-20, cumulative = 1.20993e-18
ExecutionTime = 1.3 s  ClockTime = 2 s

Time = 0.0425

Courant Number mean: 0.215464 max: 0.961923
smoothSolver:  Solving for Ux, Initial residual = 0.000752777, Final residual = 9.57501e-06, No Iterations 34
smoothSolver:  Solving for Uy, Initial residual = 0.00207236, Final residual = 9.61181e-06, No Iterations 42
DICPCG:  Solving for p, Initial residual = 0.00310843, Final residual = 0.000133774, No Iterations 75
time step continuity errors : sum local = 7.62232e-08, global = -2.74117e-19, cumulative = 9.35813e-19
DICPCG:  Solving for p, Initial residual = 0.00292021, Final residual = 8.05157e-07, No Iterations 111
time step continuity errors : sum local = 4.58249e-10, global = 2.28934e-19, cumulative = 1.16475e-18
ExecutionTime = 1.34 s  ClockTime = 2 s

Time = 0.04375

Courant Number mean: 0.21612 max: 0.962021
smoothSolver:  Solving for Ux, Initial residual = 0.000701337, Final residual = 8.95273e-06, No Iterations 34
smoothSolver:  Solving for Uy, Initial residual = 0.0019345, Final residual = 9.0068e-06, No Iterations 42
DICPCG:  Solving for p, Initial residual = 0.00272434, Final residual = 0.000114552, No Iterations 44
time step continuity errors : sum local = 7.94892e-08, global = 1.15459e-19, cumulative = 1.28021e-18
DICPCG:  Solving for p, Initial residual = 0.00258659, Final residual = 9.9256e-07, No Iterations 107
time step continuity errors : sum local = 5.65503e-10, global = -1.82048e-19, cumulative = 1.09816e-18
ExecutionTime = 1.37 s  ClockTime = 2 s

Time = 0.045

Courant Number mean: 0.216732 max: 0.962121
smoothSolver:  Solving for Ux, Initial residual = 0.000673071, Final residual = 9.69867e-06, No Iterations 33
smoothSolver:  Solving for Uy, Initial residual = 0.0017827, Final residual = 9.35495e-06, No Iterations 41
DICPCG:  Solving for p, Initial residual = 0.00324619, Final residual = 0.000145229, No Iterations 76
time step continuity errors : sum local = 8.30199e-08, global = 2.99678e-20, cumulative = 1.12813e-18
DICPCG:  Solving for p, Initial residual = 0.00306695, Final residual = 9.49762e-07, No Iterations 101
time step continuity errors : sum local = 5.41622e-10, global = 5.27061e-20, cumulative = 1.18083e-18
ExecutionTime = 1.4 s  ClockTime = 2 s

Time = 0.04625

Courant Number mean: 0.217302 max: 0.962207
smoothSolver:  Solving for Ux, Initial residual = 0.000612095, Final residual = 8.82438e-06, No Iterations 33
smoothSolver:  Solving for Uy, Initial residual = 0.00171043, Final residual = 8.97599e-06, No Iterations 41
DICPCG:  Solving for p, Initial residual = 0.00265972, Final residual = 0.00013297, No Iterations 85
time step continuity errors : sum local = 7.57326e-08, global = -1.09384e-19, cumulative = 1.07145e-18
DICPCG:  Solving for p, Initial residual = 0.00250969, Final residual = 9.92998e-07, No Iterations 112
time step continuity errors : sum local = 5.6627e-10, global = 2.20132e-19, cumulative = 1.29158e-18
ExecutionTime = 1.43 s  ClockTime = 2 s

Time = 0.0475

Courant Number mean: 0.217835 max: 0.962286
smoothSolver:  Solving for Ux, Initial residual = 0.000572355, Final residual = 9.4664e-06, No Iterations 32
smoothSolver:  Solving for Uy, Initial residual = 0.00157415, Final residual = 9.45071e-06, No Iterations 40
DICPCG:  Solving for p, Initial residual = 0.00230729, Final residual = 0.000107195, No Iterations 84
time step continuity errors : sum local = 6.12126e-08, global = -1.66431e-20, cumulative = 1.27494e-18
DICPCG:  Solving for p, Initial residual = 0.00217869, Final residual = 8.96958e-07, No Iterations 108
time step continuity errors : sum local = 5.10227e-10, global = 1.55347e-20, cumulative = 1.29047e-18
ExecutionTime = 1.47 s  ClockTime = 2 s

Time = 0.04875

Courant Number mean: 0.218331 max: 0.962359
smoothSolver:  Solving for Ux, Initial residual = 0.000532365, Final residual = 8.82747e-06, No Iterations 32
smoothSolver:  Solving for Uy, Initial residual = 0.00147383, Final residual = 8.86656e-06, No Iterations 40
DICPCG:  Solving for p, Initial residual = 0.00218839, Final residual = 0.000108503, No Iterations 40
time step continuity errors : sum local = 6.92116e-08, global = 1.5921e-19, cumulative = 1.44968e-18
DICPCG:  Solving for p, Initial residual = 0.00207846, Final residual = 7.54272e-07, No Iterations 113
time step continuity errors : sum local = 4.29937e-10, global = 2.64722e-20, cumulative = 1.47615e-18
ExecutionTime = 1.5 s  ClockTime = 2 s

Time = 0.05

Courant Number mean: 0.218795 max: 0.962427
smoothSolver:  Solving for Ux, Initial residual = 0.000502871, Final residual = 9.45674e-06, No Iterations 31
smoothSolver:  Solving for Uy, Initial residual = 0.00137462, Final residual = 9.36069e-06, No Iterations 39
DICPCG:  Solving for p, Initial residual = 0.00227908, Final residual = 0.000103745, No Iterations 86
time step continuity errors : sum local = 5.92669e-08, global = 2.46547e-19, cumulative = 1.7227e-18
DICPCG:  Solving for p, Initial residual = 0.00217047, Final residual = 9.37403e-07, No Iterations 108
time step continuity errors : sum local = 5.33928e-10, global = 3.33836e-19, cumulative = 2.05654e-18
ExecutionTime = 1.55 s  ClockTime = 2 s

Time = 0.05125

Courant Number mean: 0.219228 max: 0.962492
smoothSolver:  Solving for Ux, Initial residual = 0.000466786, Final residual = 9.97653e-06, No Iterations 30
smoothSolver:  Solving for Uy, Initial residual = 0.00130018, Final residual = 8.84343e-06, No Iterations 39
DICPCG:  Solving for p, Initial residual = 0.00213289, Final residual = 9.51807e-05, No Iterations 88
time step continuity errors : sum local = 5.43342e-08, global = -8.56922e-20, cumulative = 1.97085e-18
DICPCG:  Solving for p, Initial residual = 0.0020365, Final residual = 8.68562e-07, No Iterations 113
time step continuity errors : sum local = 4.94521e-10, global = -2.32407e-19, cumulative = 1.73844e-18
ExecutionTime = 1.58 s  ClockTime = 2 s

Time = 0.0525

Courant Number mean: 0.219633 max: 0.962548
smoothSolver:  Solving for Ux, Initial residual = 0.000437281, Final residual = 9.38029e-06, No Iterations 30
smoothSolver:  Solving for Uy, Initial residual = 0.00120423, Final residual = 9.34646e-06, No Iterations 38
DICPCG:  Solving for p, Initial residual = 0.00183581, Final residual = 9.13979e-05, No Iterations 74
time step continuity errors : sum local = 5.2019e-08, global = 8.62956e-20, cumulative = 1.82473e-18
DICPCG:  Solving for p, Initial residual = 0.00174104, Final residual = 8.88677e-07, No Iterations 110
time step continuity errors : sum local = 5.06399e-10, global = -9.87772e-20, cumulative = 1.72596e-18
ExecutionTime = 1.61 s  ClockTime = 2 s

Time = 0.05375

Courant Number mean: 0.220011 max: 0.962601
smoothSolver:  Solving for Ux, Initial residual = 0.000408011, Final residual = 9.9755e-06, No Iterations 29
smoothSolver:  Solving for Uy, Initial residual = 0.00112827, Final residual = 9.9714e-06, No Iterations 37
DICPCG:  Solving for p, Initial residual = 0.00164656, Final residual = 7.78732e-05, No Iterations 46
time step continuity errors : sum local = 5.42849e-08, global = 1.1694e-19, cumulative = 1.8429e-18
DICPCG:  Solving for p, Initial residual = 0.00157668, Final residual = 9.36685e-07, No Iterations 107
time step continuity errors : sum local = 5.34199e-10, global = 1.1667e-19, cumulative = 1.95957e-18
ExecutionTime = 1.64 s  ClockTime = 2 s

Time = 0.055

Courant Number mean: 0.220363 max: 0.962648
smoothSolver:  Solving for Ux, Initial residual = 0.000397902, Final residual = 9.64363e-06, No Iterations 29
smoothSolver:  Solving for Uy, Initial residual = 0.00103717, Final residual = 9.08411e-06, No Iterations 37
DICPCG:  Solving for p, Initial residual = 0.00191656, Final residual = 9.05436e-05, No Iterations 87
time step continuity errors : sum local = 5.16647e-08, global = -2.78668e-19, cumulative = 1.6809e-18
DICPCG:  Solving for p, Initial residual = 0.00182517, Final residual = 9.34044e-07, No Iterations 111
time step continuity errors : sum local = 5.31999e-10, global = -1.81669e-19, cumulative = 1.49923e-18
ExecutionTime = 1.67 s  ClockTime = 2 s

Time = 0.05625

Courant Number mean: 0.220693 max: 0.962697
smoothSolver:  Solving for Ux, Initial residual = 0.00035959, Final residual = 9.89137e-06, No Iterations 28
smoothSolver:  Solving for Uy, Initial residual = 0.00101133, Final residual = 8.84763e-06, No Iterations 37
DICPCG:  Solving for p, Initial residual = 0.00172705, Final residual = 7.82116e-05, No Iterations 88
time step continuity errors : sum local = 4.46988e-08, global = -4.42522e-20, cumulative = 1.45498e-18
DICPCG:  Solving for p, Initial residual = 0.00163795, Final residual = 8.86692e-07, No Iterations 108
time step continuity errors : sum local = 5.05342e-10, global = 2.22075e-19, cumulative = 1.67705e-18
ExecutionTime = 1.71 s  ClockTime = 2 s

Time = 0.0575

Courant Number mean: 0.221002 max: 0.96274
smoothSolver:  Solving for Ux, Initial residual = 0.000338049, Final residual = 9.38094e-06, No Iterations 28
smoothSolver:  Solving for Uy, Initial residual = 0.000927515, Final residual = 9.27766e-06, No Iterations 36
DICPCG:  Solving for p, Initial residual = 0.00150407, Final residual = 7.38218e-05, No Iterations 74
time step continuity errors : sum local = 4.24794e-08, global = -7.60845e-20, cumulative = 1.60097e-18
DICPCG:  Solving for p, Initial residual = 0.00142033, Final residual = 9.05792e-07, No Iterations 111
time step continuity errors : sum local = 5.15922e-10, global = 6.89775e-21, cumulative = 1.60787e-18
ExecutionTime = 1.74 s  ClockTime = 2 s

Time = 0.05875

Courant Number mean: 0.221291 max: 0.962778
smoothSolver:  Solving for Ux, Initial residual = 0.000315681, Final residual = 9.98908e-06, No Iterations 27
smoothSolver:  Solving for Uy, Initial residual = 0.0008731, Final residual = 9.95649e-06, No Iterations 35
DICPCG:  Solving for p, Initial residual = 0.00127414, Final residual = 5.97795e-05, No Iterations 43
time step continuity errors : sum local = 3.4565e-08, global = 3.49098e-19, cumulative = 1.95696e-18
DICPCG:  Solving for p, Initial residual = 0.00120903, Final residual = 9.13864e-07, No Iterations 108
time step continuity errors : sum local = 5.20787e-10, global = -3.66082e-20, cumulative = 1.92036e-18
ExecutionTime = 1.76 s  ClockTime = 2 s

Time = 0.06

Courant Number mean: 0.221561 max: 0.962817
smoothSolver:  Solving for Ux, Initial residual = 0.000295652, Final residual = 9.3571e-06, No Iterations 27
smoothSolver:  Solving for Uy, Initial residual = 0.000815587, Final residual = 9.29878e-06, No Iterations 35
DICPCG:  Solving for p, Initial residual = 0.00119581, Final residual = 5.26997e-05, No Iterations 86
time step continuity errors : sum local = 3.00454e-08, global = -3.46749e-20, cumulative = 1.88568e-18
DICPCG:  Solving for p, Initial residual = 0.00113454, Final residual = 8.90085e-07, No Iterations 100
time step continuity errors : sum local = 5.07348e-10, global = 4.74117e-19, cumulative = 2.3598e-18
ExecutionTime = 1.8 s  ClockTime = 2 s

Time = 0.06125

Courant Number mean: 0.221814 max: 0.962848
smoothSolver:  Solving for Ux, Initial residual = 0.000276969, Final residual = 9.97997e-06, No Iterations 26
smoothSolver:  Solving for Uy, Initial residual = 0.000765329, Final residual = 9.92047e-06, No Iterations 34
DICPCG:  Solving for p, Initial residual = 0.00110375, Final residual = 5.08797e-05, No Iterations 37
time step continuity errors : sum local = 3.2306e-08, global = 3.69996e-19, cumulative = 2.7298e-18
DICPCG:  Solving for p, Initial residual = 0.00105538, Final residual = 9.51347e-07, No Iterations 107
time step continuity errors : sum local = 5.43383e-10, global = 2.64771e-19, cumulative = 2.99457e-18
ExecutionTime = 1.82 s  ClockTime = 2 s

Time = 0.0625

Courant Number mean: 0.222051 max: 0.962879
smoothSolver:  Solving for Ux, Initial residual = 0.000262266, Final residual = 9.41786e-06, No Iterations 26
smoothSolver:  Solving for Uy, Initial residual = 0.000715305, Final residual = 9.25346e-06, No Iterations 34
DICPCG:  Solving for p, Initial residual = 0.00114856, Final residual = 5.36239e-05, No Iterations 86
time step continuity errors : sum local = 3.06053e-08, global = -6.73457e-20, cumulative = 2.92722e-18
DICPCG:  Solving for p, Initial residual = 0.00109502, Final residual = 7.7612e-07, No Iterations 107
time step continuity errors : sum local = 4.41432e-10, global = -8.43577e-20, cumulative = 2.84286e-18
ExecutionTime = 1.85 s  ClockTime = 2 s

Time = 0.06375

Courant Number mean: 0.222272 max: 0.962908
smoothSolver:  Solving for Ux, Initial residual = 0.000244164, Final residual = 9.97857e-06, No Iterations 25
smoothSolver:  Solving for Uy, Initial residual = 0.000677322, Final residual = 9.95272e-06, No Iterations 33
DICPCG:  Solving for p, Initial residual = 0.00102676, Final residual = 4.44707e-05, No Iterations 77
time step continuity errors : sum local = 2.55152e-08, global = 6.63727e-20, cumulative = 2.90924e-18
DICPCG:  Solving for p, Initial residual = 0.000974713, Final residual = 8.60832e-07, No Iterations 105
time step continuity errors : sum local = 4.89926e-10, global = -9.5873e-20, cumulative = 2.81336e-18
ExecutionTime = 1.88 s  ClockTime = 2 s

Time = 0.065

Courant Number mean: 0.22248 max: 0.962935
smoothSolver:  Solving for Ux, Initial residual = 0.000229666, Final residual = 9.40186e-06, No Iterations 25
smoothSolver:  Solving for Uy, Initial residual = 0.000631028, Final residual = 9.29346e-06, No Iterations 33
DICPCG:  Solving for p, Initial residual = 0.000870149, Final residual = 3.00054e-05, No Iterations 44
time step continuity errors : sum local = 2.003e-08, global = -1.25843e-19, cumulative = 2.68752e-18
DICPCG:  Solving for p, Initial residual = 0.000827188, Final residual = 7.95103e-07, No Iterations 106
time step continuity errors : sum local = 4.5481e-10, global = -2.72367e-19, cumulative = 2.41515e-18
ExecutionTime = 1.91 s  ClockTime = 2 s

Time = 0.06625

Courant Number mean: 0.222675 max: 0.962959
smoothSolver:  Solving for Ux, Initial residual = 0.000213105, Final residual = 9.88123e-06, No Iterations 24
smoothSolver:  Solving for Uy, Initial residual = 0.000604067, Final residual = 8.84806e-06, No Iterations 33
DICPCG:  Solving for p, Initial residual = 0.00098905, Final residual = 4.9002e-05, No Iterations 87
time step continuity errors : sum local = 2.79503e-08, global = 1.80967e-19, cumulative = 2.59612e-18
DICPCG:  Solving for p, Initial residual = 0.000944046, Final residual = 7.78383e-07, No Iterations 106
time step continuity errors : sum local = 4.43788e-10, global = 1.2503e-19, cumulative = 2.72115e-18
ExecutionTime = 1.94 s  ClockTime = 2 s

Time = 0.0675

Courant Number mean: 0.222857 max: 0.962983
smoothSolver:  Solving for Ux, Initial residual = 0.000204381, Final residual = 9.48211e-06, No Iterations 24
smoothSolver:  Solving for Uy, Initial residual = 0.000556219, Final residual = 9.261e-06, No Iterations 32
DICPCG:  Solving for p, Initial residual = 0.000891231, Final residual = 3.93015e-05, No Iterations 88
time step continuity errors : sum local = 2.24897e-08, global = 3.01895e-20, cumulative = 2.75134e-18
DICPCG:  Solving for p, Initial residual = 0.000851729, Final residual = 9.57406e-07, No Iterations 105
time step continuity errors : sum local = 5.45335e-10, global = -1.25102e-19, cumulative = 2.62624e-18
ExecutionTime = 1.97 s  ClockTime = 2 s

Time = 0.06875

Courant Number mean: 0.223027 max: 0.963006
smoothSolver:  Solving for Ux, Initial residual = 0.000190146, Final residual = 8.84843e-06, No Iterations 24
smoothSolver:  Solving for Uy, Initial residual = 0.000523416, Final residual = 9.95352e-06, No Iterations 31
DICPCG:  Solving for p, Initial residual = 0.000805741, Final residual = 3.42851e-05, No Iterations 75
time step continuity errors : sum local = 1.95636e-08, global = -1.42089e-19, cumulative = 2.48415e-18
DICPCG:  Solving for p, Initial residual = 0.000768384, Final residual = 9.2387e-07, No Iterations 106
time step continuity errors : sum local = 5.26699e-10, global = -4.19818e-19, cumulative = 2.06433e-18
ExecutionTime = 2 s  ClockTime = 2 s

Time = 0.07

Courant Number mean: 0.223187 max: 0.963024
smoothSolver:  Solving for Ux, Initial residual = 0.000178878, Final residual = 9.47478e-06, No Iterations 23
smoothSolver:  Solving for Uy, Initial residual = 0.000490847, Final residual = 9.33819e-06, No Iterations 31
DICPCG:  Solving for p, Initial residual = 0.00074075, Final residual = 3.21446e-05, No Iterations 43
time step continuity errors : sum local = 2.00504e-08, global = -1.12442e-19, cumulative = 1.95189e-18
DICPCG:  Solving for p, Initial residual = 0.000709891, Final residual = 9.05735e-07, No Iterations 106
time step continuity errors : sum local = 5.15769e-10, global = -2.0203e-19, cumulative = 1.74986e-18
ExecutionTime = 2.03 s  ClockTime = 2 s

Time = 0.07125

Courant Number mean: 0.223337 max: 0.963044
smoothSolver:  Solving for Ux, Initial residual = 0.000165995, Final residual = 9.97688e-06, No Iterations 22
smoothSolver:  Solving for Uy, Initial residual = 0.000468024, Final residual = 8.85976e-06, No Iterations 31
DICPCG:  Solving for p, Initial residual = 0.000747162, Final residual = 3.59108e-05, No Iterations 75
time step continuity errors : sum local = 2.04476e-08, global = -2.9925e-19, cumulative = 1.45061e-18
DICPCG:  Solving for p, Initial residual = 0.000716281, Final residual = 7.37173e-07, No Iterations 105
time step continuity errors : sum local = 4.20199e-10, global = 1.40907e-19, cumulative = 1.59151e-18
ExecutionTime = 2.07 s  ClockTime = 2 s

Time = 0.0725

Courant Number mean: 0.223477 max: 0.963061
smoothSolver:  Solving for Ux, Initial residual = 0.000159453, Final residual = 9.5682e-06, No Iterations 22
smoothSolver:  Solving for Uy, Initial residual = 0.000433297, Final residual = 9.32296e-06, No Iterations 30
DICPCG:  Solving for p, Initial residual = 0.000709347, Final residual = 3.50091e-05, No Iterations 86
time step continuity errors : sum local = 1.99489e-08, global = 1.99192e-20, cumulative = 1.61143e-18
DICPCG:  Solving for p, Initial residual = 0.000680937, Final residual = 9.52031e-07, No Iterations 105
time step continuity errors : sum local = 5.41829e-10, global = -5.35412e-20, cumulative = 1.55789e-18
ExecutionTime = 2.1 s  ClockTime = 2 s

Time = 0.07375

Courant Number mean: 0.223609 max: 0.963077
smoothSolver:  Solving for Ux, Initial residual = 0.000148248, Final residual = 8.92999e-06, No Iterations 22
smoothSolver:  Solving for Uy, Initial residual = 0.000407625, Final residual = 9.99888e-06, No Iterations 29
DICPCG:  Solving for p, Initial residual = 0.000612482, Final residual = 2.2383e-05, No Iterations 73
time step continuity errors : sum local = 1.28098e-08, global = -1.34124e-19, cumulative = 1.42377e-18
DICPCG:  Solving for p, Initial residual = 0.000583855, Final residual = 8.66942e-07, No Iterations 103
time step continuity errors : sum local = 4.94489e-10, global = 1.35636e-19, cumulative = 1.5594e-18
ExecutionTime = 2.13 s  ClockTime = 2 s

Time = 0.075

Courant Number mean: 0.223732 max: 0.963092
smoothSolver:  Solving for Ux, Initial residual = 0.00013977, Final residual = 9.57186e-06, No Iterations 21
smoothSolver:  Solving for Uy, Initial residual = 0.000382234, Final residual = 9.38735e-06, No Iterations 29
DICPCG:  Solving for p, Initial residual = 0.000556539, Final residual = 2.5232e-05, No Iterations 43
time step continuity errors : sum local = 1.46851e-08, global = -1.47933e-19, cumulative = 1.41147e-18
DICPCG:  Solving for p, Initial residual = 0.000536098, Final residual = 7.32685e-07, No Iterations 72
time step continuity errors : sum local = 4.64487e-10, global = 1.71332e-19, cumulative = 1.5828e-18
ExecutionTime = 2.16 s  ClockTime = 2 s

Time = 0.07625

Courant Number mean: 0.223847 max: 0.963106
smoothSolver:  Solving for Ux, Initial residual = 0.000131398, Final residual = 8.99916e-06, No Iterations 21
smoothSolver:  Solving for Uy, Initial residual = 0.000359115, Final residual = 8.81954e-06, No Iterations 29
DICPCG:  Solving for p, Initial residual = 0.000522249, Final residual = 2.02835e-05, No Iterations 43
time step continuity errors : sum local = 1.2255e-08, global = -3.51643e-19, cumulative = 1.23116e-18
DICPCG:  Solving for p, Initial residual = 0.000501198, Final residual = 9.25379e-07, No Iterations 103
time step continuity errors : sum local = 5.27526e-10, global = 8.81338e-20, cumulative = 1.31929e-18
ExecutionTime = 2.19 s  ClockTime = 3 s

Time = 0.0775

Courant Number mean: 0.223956 max: 0.963119
smoothSolver:  Solving for Ux, Initial residual = 0.000122653, Final residual = 9.54829e-06, No Iterations 20
smoothSolver:  Solving for Uy, Initial residual = 0.000341066, Final residual = 9.49093e-06, No Iterations 28
DICPCG:  Solving for p, Initial residual = 0.000528298, Final residual = 2.53385e-05, No Iterations 74
time step continuity errors : sum local = 1.44335e-08, global = 3.77542e-19, cumulative = 1.69683e-18
DICPCG:  Solving for p, Initial residual = 0.000510158, Final residual = 8.57042e-07, No Iterations 92
time step continuity errors : sum local = 4.93237e-10, global = 2.70482e-21, cumulative = 1.69954e-18
ExecutionTime = 2.22 s  ClockTime = 3 s

Time = 0.07875

Courant Number mean: 0.224057 max: 0.963131
smoothSolver:  Solving for Ux, Initial residual = 0.000117091, Final residual = 9.10316e-06, No Iterations 20
smoothSolver:  Solving for Uy, Initial residual = 0.000318106, Final residual = 8.85259e-06, No Iterations 28
DICPCG:  Solving for p, Initial residual = 0.000530098, Final residual = 2.63118e-05, No Iterations 43
time step continuity errors : sum local = 1.75641e-08, global = -1.92083e-19, cumulative = 1.50746e-18
DICPCG:  Solving for p, Initial residual = 0.00050958, Final residual = 9.37835e-07, No Iterations 91
time step continuity errors : sum local = 5.33807e-10, global = 2.10409e-19, cumulative = 1.71787e-18
ExecutionTime = 2.24 s  ClockTime = 3 s

Time = 0.08

Courant Number mean: 0.224152 max: 0.963143
smoothSolver:  Solving for Ux, Initial residual = 0.000108005, Final residual = 9.47762e-06, No Iterations 19
smoothSolver:  Solving for Uy, Initial residual = 0.000307988, Final residual = 9.66785e-06, No Iterations 27
DICPCG:  Solving for p, Initial residual = 0.000579114, Final residual = 2.79363e-05, No Iterations 76
time step continuity errors : sum local = 1.59073e-08, global = 2.49102e-19, cumulative = 1.96697e-18
DICPCG:  Solving for p, Initial residual = 0.000555933, Final residual = 8.92688e-07, No Iterations 105
time step continuity errors : sum local = 5.08602e-10, global = -1.79753e-19, cumulative = 1.78721e-18
ExecutionTime = 2.27 s  ClockTime = 3 s

Time = 0.08125

Courant Number mean: 0.224241 max: 0.963153
smoothSolver:  Solving for Ux, Initial residual = 0.000105345, Final residual = 9.24517e-06, No Iterations 19
smoothSolver:  Solving for Uy, Initial residual = 0.00028213, Final residual = 8.84762e-06, No Iterations 27
DICPCG:  Solving for p, Initial residual = 0.000522653, Final residual = 2.1683e-05, No Iterations 87
time step continuity errors : sum local = 1.23592e-08, global = -7.74449e-20, cumulative = 1.70977e-18
DICPCG:  Solving for p, Initial residual = 0.000502787, Final residual = 8.33983e-07, No Iterations 104
time step continuity errors : sum local = 4.74993e-10, global = 1.8424e-19, cumulative = 1.89401e-18
ExecutionTime = 2.3 s  ClockTime = 3 s

Time = 0.0825

Courant Number mean: 0.224325 max: 0.963164
smoothSolver:  Solving for Ux, Initial residual = 9.73109e-05, Final residual = 9.76513e-06, No Iterations 18
smoothSolver:  Solving for Uy, Initial residual = 0.000265366, Final residual = 9.53427e-06, No Iterations 26
DICPCG:  Solving for p, Initial residual = 0.000452285, Final residual = 2.14229e-05, No Iterations 84
time step continuity errors : sum local = 1.22293e-08, global = 5.31323e-20, cumulative = 1.94714e-18
DICPCG:  Solving for p, Initial residual = 0.000435289, Final residual = 8.53578e-07, No Iterations 103
time step continuity errors : sum local = 4.8696e-10, global = -7.81854e-20, cumulative = 1.86896e-18
ExecutionTime = 2.33 s  ClockTime = 3 s

Time = 0.08375

Courant Number mean: 0.224403 max: 0.963172
smoothSolver:  Solving for Ux, Initial residual = 9.19786e-05, Final residual = 9.24292e-06, No Iterations 18
smoothSolver:  Solving for Uy, Initial residual = 0.00024915, Final residual = 8.94812e-06, No Iterations 26
DICPCG:  Solving for p, Initial residual = 0.000427181, Final residual = 1.94248e-05, No Iterations 43
time step continuity errors : sum local = 1.13194e-08, global = -5.93502e-20, cumulative = 1.80961e-18
DICPCG:  Solving for p, Initial residual = 0.000412006, Final residual = 7.7722e-07, No Iterations 60
time step continuity errors : sum local = 4.74332e-10, global = -1.85761e-19, cumulative = 1.62385e-18
ExecutionTime = 2.35 s  ClockTime = 3 s

Time = 0.085

Courant Number mean: 0.224476 max: 0.963181
smoothSolver:  Solving for Ux, Initial residual = 8.65767e-05, Final residual = 9.88901e-06, No Iterations 17
smoothSolver:  Solving for Uy, Initial residual = 0.000234336, Final residual = 9.57131e-06, No Iterations 25
DICPCG:  Solving for p, Initial residual = 0.000415692, Final residual = 2.01622e-05, No Iterations 41
time step continuity errors : sum local = 1.16231e-08, global = -3.25521e-20, cumulative = 1.59129e-18
DICPCG:  Solving for p, Initial residual = 0.000402095, Final residual = 7.4138e-07, No Iterations 103
time step continuity errors : sum local = 4.22094e-10, global = -1.09654e-19, cumulative = 1.48164e-18
ExecutionTime = 2.37 s  ClockTime = 3 s

Time = 0.08625

Courant Number mean: 0.224545 max: 0.96319
smoothSolver:  Solving for Ux, Initial residual = 8.13385e-05, Final residual = 9.29469e-06, No Iterations 17
smoothSolver:  Solving for Uy, Initial residual = 0.000222024, Final residual = 9.05366e-06, No Iterations 25
DICPCG:  Solving for p, Initial residual = 0.000412932, Final residual = 1.76043e-05, No Iterations 75
time step continuity errors : sum local = 1.0109e-08, global = 1.87499e-20, cumulative = 1.50039e-18
DICPCG:  Solving for p, Initial residual = 0.000398095, Final residual = 9.06663e-07, No Iterations 102
time step continuity errors : sum local = 5.16172e-10, global = -1.36502e-19, cumulative = 1.36389e-18
ExecutionTime = 2.4 s  ClockTime = 3 s

Time = 0.0875

Courant Number mean: 0.22461 max: 0.963197
smoothSolver:  Solving for Ux, Initial residual = 7.7415e-05, Final residual = 8.83458e-06, No Iterations 17
smoothSolver:  Solving for Uy, Initial residual = 0.00020756, Final residual = 9.62572e-06, No Iterations 24
DICPCG:  Solving for p, Initial residual = 0.000376698, Final residual = 1.52354e-05, No Iterations 43
time step continuity errors : sum local = 9.96356e-09, global = -2.00846e-19, cumulative = 1.16304e-18
DICPCG:  Solving for p, Initial residual = 0.000366121, Final residual = 8.67145e-07, No Iterations 102
time step continuity errors : sum local = 4.93464e-10, global = -3.97573e-20, cumulative = 1.12328e-18
ExecutionTime = 2.42 s  ClockTime = 3 s

Time = 0.08875

Courant Number mean: 0.22467 max: 0.963203
smoothSolver:  Solving for Ux, Initial residual = 7.39824e-05, Final residual = 9.56643e-06, No Iterations 16
smoothSolver:  Solving for Uy, Initial residual = 0.000194035, Final residual = 8.97597e-06, No Iterations 24
DICPCG:  Solving for p, Initial residual = 0.000410413, Final residual = 1.7121e-05, No Iterations 74
time step continuity errors : sum local = 9.75257e-09, global = 1.04222e-19, cumulative = 1.22751e-18
DICPCG:  Solving for p, Initial residual = 0.000399235, Final residual = 8.82569e-07, No Iterations 102
time step continuity errors : sum local = 5.0244e-10, global = -8.65976e-20, cumulative = 1.14091e-18
ExecutionTime = 2.45 s  ClockTime = 3 s

Time = 0.09

Courant Number mean: 0.224727 max: 0.96321
smoothSolver:  Solving for Ux, Initial residual = 6.85775e-05, Final residual = 8.86964e-06, No Iterations 16
smoothSolver:  Solving for Uy, Initial residual = 0.000185946, Final residual = 9.77616e-06, No Iterations 23
DICPCG:  Solving for p, Initial residual = 0.00035852, Final residual = 1.59725e-05, No Iterations 87
time step continuity errors : sum local = 9.09823e-09, global = -1.67797e-19, cumulative = 9.73111e-19
DICPCG:  Solving for p, Initial residual = 0.000347415, Final residual = 8.78186e-07, No Iterations 102
time step continuity errors : sum local = 4.99809e-10, global = -1.08021e-19, cumulative = 8.6509e-19
ExecutionTime = 2.48 s  ClockTime = 3 s

Time = 0.09125

Courant Number mean: 0.22478 max: 0.963216
smoothSolver:  Solving for Ux, Initial residual = 6.49177e-05, Final residual = 9.56774e-06, No Iterations 15
smoothSolver:  Solving for Uy, Initial residual = 0.000174374, Final residual = 9.17751e-06, No Iterations 23
DICPCG:  Solving for p, Initial residual = 0.000365783, Final residual = 1.69309e-05, No Iterations 30
time step continuity errors : sum local = 1.07859e-08, global = -1.33823e-19, cumulative = 7.31267e-19
DICPCG:  Solving for p, Initial residual = 0.000358449, Final residual = 9.42996e-07, No Iterations 99
time step continuity errors : sum local = 5.37118e-10, global = -6.13753e-20, cumulative = 6.69891e-19
ExecutionTime = 2.5 s  ClockTime = 3 s

Time = 0.0925

Courant Number mean: 0.22483 max: 0.963222
smoothSolver:  Solving for Ux, Initial residual = 6.28116e-05, Final residual = 9.21227e-06, No Iterations 15
smoothSolver:  Solving for Uy, Initial residual = 0.000162302, Final residual = 9.66051e-06, No Iterations 22
DICPCG:  Solving for p, Initial residual = 0.000364364, Final residual = 1.67439e-05, No Iterations 84
time step continuity errors : sum local = 9.55252e-09, global = 3.89434e-19, cumulative = 1.05932e-18
DICPCG:  Solving for p, Initial residual = 0.000353812, Final residual = 7.78717e-07, No Iterations 102
time step continuity errors : sum local = 4.43798e-10, global = 1.35201e-19, cumulative = 1.19453e-18
ExecutionTime = 2.52 s  ClockTime = 3 s

Time = 0.09375

Courant Number mean: 0.224876 max: 0.963227
smoothSolver:  Solving for Ux, Initial residual = 5.77832e-05, Final residual = 9.65266e-06, No Iterations 14
smoothSolver:  Solving for Uy, Initial residual = 0.000156585, Final residual = 9.3529e-06, No Iterations 22
DICPCG:  Solving for p, Initial residual = 0.000375337, Final residual = 1.58322e-05, No Iterations 74
time step continuity errors : sum local = 9.01145e-09, global = -1.71834e-21, cumulative = 1.19281e-18
DICPCG:  Solving for p, Initial residual = 0.000365617, Final residual = 9.62492e-07, No Iterations 101
time step continuity errors : sum local = 5.47914e-10, global = 1.22222e-19, cumulative = 1.31503e-18
ExecutionTime = 2.55 s  ClockTime = 3 s

Time = 0.095

Courant Number mean: 0.22492 max: 0.963233
smoothSolver:  Solving for Ux, Initial residual = 5.52036e-05, Final residual = 9.22835e-06, No Iterations 14
smoothSolver:  Solving for Uy, Initial residual = 0.000146273, Final residual = 9.90828e-06, No Iterations 21
DICPCG:  Solving for p, Initial residual = 0.000326583, Final residual = 1.5872e-05, No Iterations 41
time step continuity errors : sum local = 9.51937e-09, global = -2.59287e-20, cumulative = 1.2891e-18
DICPCG:  Solving for p, Initial residual = 0.000319751, Final residual = 9.24691e-07, No Iterations 60
time step continuity errors : sum local = 5.86464e-10, global = 6.80342e-20, cumulative = 1.35714e-18
ExecutionTime = 2.57 s  ClockTime = 3 s

Time = 0.09625

Courant Number mean: 0.224961 max: 0.963237
smoothSolver:  Solving for Ux, Initial residual = 5.21217e-05, Final residual = 9.91159e-06, No Iterations 13
smoothSolver:  Solving for Uy, Initial residual = 0.00013785, Final residual = 9.35721e-06, No Iterations 21
DICPCG:  Solving for p, Initial residual = 0.000355409, Final residual = 1.66316e-05, No Iterations 40
time step continuity errors : sum local = 9.81861e-09, global = -5.84928e-20, cumulative = 1.29864e-18
DICPCG:  Solving for p, Initial residual = 0.000347876, Final residual = 8.39097e-07, No Iterations 69
time step continuity errors : sum local = 5.134e-10, global = 1.78663e-19, cumulative = 1.4773e-18
ExecutionTime = 2.59 s  ClockTime = 3 s

Time = 0.0975

Courant Number mean: 0.225 max: 0.963242
smoothSolver:  Solving for Ux, Initial residual = 4.95432e-05, Final residual = 9.41457e-06, No Iterations 13
smoothSolver:  Solving for Uy, Initial residual = 0.000130068, Final residual = 8.80691e-06, No Iterations 21
DICPCG:  Solving for p, Initial residual = 0.000328072, Final residual = 1.41246e-05, No Iterations 39
time step continuity errors : sum local = 8.24366e-09, global = 1.95321e-19, cumulative = 1.67263e-18
DICPCG:  Solving for p, Initial residual = 0.000320137, Final residual = 7.39622e-07, No Iterations 96
time step continuity errors : sum local = 4.22235e-10, global = -1.37027e-19, cumulative = 1.5356e-18
ExecutionTime = 2.61 s  ClockTime = 3 s

Time = 0.09875

Courant Number mean: 0.225036 max: 0.963246
smoothSolver:  Solving for Ux, Initial residual = 4.65737e-05, Final residual = 8.86578e-06, No Iterations 13
smoothSolver:  Solving for Uy, Initial residual = 0.000123385, Final residual = 9.502e-06, No Iterations 20
DICPCG:  Solving for p, Initial residual = 0.000279605, Final residual = 1.32135e-05, No Iterations 43
time step continuity errors : sum local = 9.34245e-09, global = -1.86624e-19, cumulative = 1.34897e-18
DICPCG:  Solving for p, Initial residual = 0.000277839, Final residual = 9.81415e-07, No Iterations 97
time step continuity errors : sum local = 5.61173e-10, global = -1.1437e-19, cumulative = 1.2346e-18
ExecutionTime = 2.63 s  ClockTime = 3 s

Time = 0.1

Courant Number mean: 0.22507 max: 0.963249
smoothSolver:  Solving for Ux, Initial residual = 4.63733e-05, Final residual = 9.9228e-06, No Iterations 12
smoothSolver:  Solving for Uy, Initial residual = 0.000114471, Final residual = 9.86113e-06, No Iterations 19
DICPCG:  Solving for p, Initial residual = 0.000371637, Final residual = 1.67976e-05, No Iterations 88
time step continuity errors : sum local = 9.57744e-09, global = -6.4861e-20, cumulative = 1.16974e-18
DICPCG:  Solving for p, Initial residual = 0.000363696, Final residual = 7.46221e-07, No Iterations 104
time step continuity errors : sum local = 4.24908e-10, global = 1.84574e-19, cumulative = 1.35432e-18
ExecutionTime = 2.67 s  ClockTime = 3 s

Time = 0.10125

Courant Number mean: 0.225101 max: 0.963253
smoothSolver:  Solving for Ux, Initial residual = 4.19883e-05, Final residual = 8.95202e-06, No Iterations 12
smoothSolver:  Solving for Uy, Initial residual = 0.000113193, Final residual = 9.79626e-06, No Iterations 19
DICPCG:  Solving for p, Initial residual = 0.000318784, Final residual = 1.45089e-05, No Iterations 79
time step continuity errors : sum local = 8.3647e-09, global = 2.21453e-19, cumulative = 1.57577e-18
DICPCG:  Solving for p, Initial residual = 0.000307797, Final residual = 8.68314e-07, No Iterations 102
time step continuity errors : sum local = 4.94954e-10, global = -2.08227e-20, cumulative = 1.55495e-18
ExecutionTime = 2.7 s  ClockTime = 3 s

Time = 0.1025

Courant Number mean: 0.225131 max: 0.963256
smoothSolver:  Solving for Ux, Initial residual = 4.01651e-05, Final residual = 9.80377e-06, No Iterations 11
smoothSolver:  Solving for Uy, Initial residual = 0.000104409, Final residual = 9.07538e-06, No Iterations 19
DICPCG:  Solving for p, Initial residual = 0.000320705, Final residual = 1.3221e-05, No Iterations 43
time step continuity errors : sum local = 9.30866e-09, global = -1.56725e-19, cumulative = 1.39822e-18
DICPCG:  Solving for p, Initial residual = 0.000317935, Final residual = 8.97179e-07, No Iterations 96
time step continuity errors : sum local = 5.13753e-10, global = 3.46543e-21, cumulative = 1.40169e-18
ExecutionTime = 2.72 s  ClockTime = 3 s

Time = 0.10375

Courant Number mean: 0.225159 max: 0.963259
smoothSolver:  Solving for Ux, Initial residual = 4.00734e-05, Final residual = 9.71594e-06, No Iterations 11
smoothSolver:  Solving for Uy, Initial residual = 9.63357e-05, Final residual = 9.38406e-06, No Iterations 18
DICPCG:  Solving for p, Initial residual = 0.000334653, Final residual = 1.5521e-05, No Iterations 87
time step continuity errors : sum local = 8.85913e-09, global = -2.95441e-19, cumulative = 1.10625e-18
DICPCG:  Solving for p, Initial residual = 0.000328373, Final residual = 9.06732e-07, No Iterations 103
time step continuity errors : sum local = 5.16198e-10, global = 3.10159e-20, cumulative = 1.13726e-18
ExecutionTime = 2.74 s  ClockTime = 3 s

Time = 0.105

Courant Number mean: 0.225185 max: 0.963262
smoothSolver:  Solving for Ux, Initial residual = 3.57858e-05, Final residual = 9.88179e-06, No Iterations 10
smoothSolver:  Solving for Uy, Initial residual = 9.60511e-05, Final residual = 9.44579e-06, No Iterations 18
DICPCG:  Solving for p, Initial residual = 0.000340865, Final residual = 1.33751e-05, No Iterations 87
time step continuity errors : sum local = 7.62288e-09, global = 8.87009e-20, cumulative = 1.22596e-18
DICPCG:  Solving for p, Initial residual = 0.000334645, Final residual = 7.49258e-07, No Iterations 102
time step continuity errors : sum local = 4.26816e-10, global = -4.94673e-20, cumulative = 1.1765e-18
ExecutionTime = 2.77 s  ClockTime = 3 s

Time = 0.10625

Courant Number mean: 0.22521 max: 0.963265
smoothSolver:  Solving for Ux, Initial residual = 3.47597e-05, Final residual = 9.6024e-06, No Iterations 10
smoothSolver:  Solving for Uy, Initial residual = 8.86344e-05, Final residual = 9.89292e-06, No Iterations 17
DICPCG:  Solving for p, Initial residual = 0.00030078, Final residual = 1.47722e-05, No Iterations 41
time step continuity errors : sum local = 9.02851e-09, global = 2.00598e-19, cumulative = 1.37709e-18
DICPCG:  Solving for p, Initial residual = 0.000297379, Final residual = 9.49338e-07, No Iterations 60
time step continuity errors : sum local = 6.76581e-10, global = -6.71813e-20, cumulative = 1.30991e-18
ExecutionTime = 2.79 s  ClockTime = 3 s

Time = 0.1075

Courant Number mean: 0.225233 max: 0.963268
smoothSolver:  Solving for Ux, Initial residual = 3.29952e-05, Final residual = 9.16303e-06, No Iterations 10
smoothSolver:  Solving for Uy, Initial residual = 8.36431e-05, Final residual = 9.37177e-06, No Iterations 17
DICPCG:  Solving for p, Initial residual = 0.000274671, Final residual = 1.32504e-05, No Iterations 42
time step continuity errors : sum local = 8.32224e-09, global = 1.95678e-19, cumulative = 1.50559e-18
DICPCG:  Solving for p, Initial residual = 0.000270053, Final residual = 8.66908e-07, No Iterations 100
time step continuity errors : sum local = 4.93637e-10, global = -2.53364e-20, cumulative = 1.48025e-18
ExecutionTime = 2.81 s  ClockTime = 3 s

Time = 0.10875

Courant Number mean: 0.225255 max: 0.96327
smoothSolver:  Solving for Ux, Initial residual = 3.04421e-05, Final residual = 9.54289e-06, No Iterations 9
smoothSolver:  Solving for Uy, Initial residual = 8.30301e-05, Final residual = 9.25055e-06, No Iterations 17
DICPCG:  Solving for p, Initial residual = 0.000326152, Final residual = 1.56987e-05, No Iterations 74
time step continuity errors : sum local = 8.95435e-09, global = -1.67265e-20, cumulative = 1.46353e-18
DICPCG:  Solving for p, Initial residual = 0.000323438, Final residual = 7.7985e-07, No Iterations 102
time step continuity errors : sum local = 4.443e-10, global = -5.58428e-20, cumulative = 1.40769e-18
ExecutionTime = 2.83 s  ClockTime = 3 s

Time = 0.11

Courant Number mean: 0.225275 max: 0.963273
smoothSolver:  Solving for Ux, Initial residual = 3.04423e-05, Final residual = 9.48617e-06, No Iterations 9
smoothSolver:  Solving for Uy, Initial residual = 7.57868e-05, Final residual = 9.53045e-06, No Iterations 16
DICPCG:  Solving for p, Initial residual = 0.00030508, Final residual = 1.47061e-05, No Iterations 40
time step continuity errors : sum local = 8.77077e-09, global = -1.79298e-19, cumulative = 1.22839e-18
DICPCG:  Solving for p, Initial residual = 0.000299613, Final residual = 9.36839e-07, No Iterations 95
time step continuity errors : sum local = 5.352e-10, global = 1.34313e-19, cumulative = 1.3627e-18
ExecutionTime = 2.85 s  ClockTime = 3 s

Time = 0.11125

Courant Number mean: 0.225294 max: 0.963274
smoothSolver:  Solving for Ux, Initial residual = 2.78729e-05, Final residual = 9.92688e-06, No Iterations 8
smoothSolver:  Solving for Uy, Initial residual = 7.41108e-05, Final residual = 9.37132e-06, No Iterations 16
DICPCG:  Solving for p, Initial residual = 0.000333598, Final residual = 1.52397e-05, No Iterations 74
time step continuity errors : sum local = 8.7076e-09, global = 2.50259e-19, cumulative = 1.61296e-18
DICPCG:  Solving for p, Initial residual = 0.000328863, Final residual = 8.44631e-07, No Iterations 90
time step continuity errors : sum local = 4.81794e-10, global = 3.14943e-21, cumulative = 1.61611e-18
ExecutionTime = 2.88 s  ClockTime = 3 s

Time = 0.1125

Courant Number mean: 0.225312 max: 0.963277
smoothSolver:  Solving for Ux, Initial residual = 2.76872e-05, Final residual = 9.79291e-06, No Iterations 8
smoothSolver:  Solving for Uy, Initial residual = 6.84064e-05, Final residual = 9.76197e-06, No Iterations 15
DICPCG:  Solving for p, Initial residual = 0.000297459, Final residual = 1.12222e-05, No Iterations 40
time step continuity errors : sum local = 6.52214e-09, global = 1.47028e-20, cumulative = 1.63081e-18
DICPCG:  Solving for p, Initial residual = 0.000292999, Final residual = 9.01416e-07, No Iterations 94
time step continuity errors : sum local = 5.1369e-10, global = -2.36857e-19, cumulative = 1.39395e-18
ExecutionTime = 2.9 s  ClockTime = 3 s

Time = 0.11375

Courant Number mean: 0.225328 max: 0.963278
smoothSolver:  Solving for Ux, Initial residual = 2.59393e-05, Final residual = 9.26057e-06, No Iterations 8
smoothSolver:  Solving for Uy, Initial residual = 6.52212e-05, Final residual = 9.39266e-06, No Iterations 15
DICPCG:  Solving for p, Initial residual = 0.000265356, Final residual = 1.20425e-05, No Iterations 72
time step continuity errors : sum local = 6.85736e-09, global = -7.48253e-20, cumulative = 1.31913e-18
DICPCG:  Solving for p, Initial residual = 0.000261509, Final residual = 8.96576e-07, No Iterations 98
time step continuity errors : sum local = 5.1032e-10, global = 3.85931e-21, cumulative = 1.32299e-18
ExecutionTime = 2.92 s  ClockTime = 3 s

Time = 0.115

Courant Number mean: 0.225344 max: 0.96328
smoothSolver:  Solving for Ux, Initial residual = 2.47718e-05, Final residual = 8.84748e-06, No Iterations 8
smoothSolver:  Solving for Uy, Initial residual = 6.18209e-05, Final residual = 8.90958e-06, No Iterations 15
DICPCG:  Solving for p, Initial residual = 0.000244638, Final residual = 1.18466e-05, No Iterations 44
time step continuity errors : sum local = 8.52982e-09, global = -9.93389e-20, cumulative = 1.22365e-18
DICPCG:  Solving for p, Initial residual = 0.000245233, Final residual = 8.89082e-07, No Iterations 96
time step continuity errors : sum local = 5.07023e-10, global = 1.774e-19, cumulative = 1.40105e-18
ExecutionTime = 2.94 s  ClockTime = 3 s

Time = 0.11625

Courant Number mean: 0.225359 max: 0.963282
smoothSolver:  Solving for Ux, Initial residual = 2.58678e-05, Final residual = 9.10168e-06, No Iterations 8
smoothSolver:  Solving for Uy, Initial residual = 5.7285e-05, Final residual = 9.11914e-06, No Iterations 14
DICPCG:  Solving for p, Initial residual = 0.000269856, Final residual = 1.05533e-05, No Iterations 75
time step continuity errors : sum local = 6.01067e-09, global = 4.51372e-19, cumulative = 1.85242e-18
DICPCG:  Solving for p, Initial residual = 0.000265354, Final residual = 9.19167e-07, No Iterations 90
time step continuity errors : sum local = 5.23637e-10, global = -3.71741e-19, cumulative = 1.48068e-18
ExecutionTime = 2.96 s  ClockTime = 3 s

Time = 0.1175

Courant Number mean: 0.225373 max: 0.963283
smoothSolver:  Solving for Ux, Initial residual = 2.24843e-05, Final residual = 8.98277e-06, No Iterations 7
smoothSolver:  Solving for Uy, Initial residual = 5.86581e-05, Final residual = 9.47738e-06, No Iterations 14
DICPCG:  Solving for p, Initial residual = 0.000272586, Final residual = 1.12656e-05, No Iterations 87
time step continuity errors : sum local = 6.43317e-09, global = -5.73236e-20, cumulative = 1.42336e-18
DICPCG:  Solving for p, Initial residual = 0.000267034, Final residual = 9.5317e-07, No Iterations 96
time step continuity errors : sum local = 5.43567e-10, global = 5.32253e-19, cumulative = 1.95561e-18
ExecutionTime = 2.98 s  ClockTime = 3 s

Time = 0.11875

Courant Number mean: 0.225386 max: 0.963285
smoothSolver:  Solving for Ux, Initial residual = 2.19747e-05, Final residual = 8.82642e-06, No Iterations 7
smoothSolver:  Solving for Uy, Initial residual = 5.37469e-05, Final residual = 9.88904e-06, No Iterations 13
DICPCG:  Solving for p, Initial residual = 0.000230365, Final residual = 1.05438e-05, No Iterations 37
time step continuity errors : sum local = 6.87596e-09, global = -3.92593e-20, cumulative = 1.91635e-18
DICPCG:  Solving for p, Initial residual = 0.000227259, Final residual = 7.64151e-07, No Iterations 94
time step continuity errors : sum local = 4.3543e-10, global = 4.21163e-19, cumulative = 2.33751e-18
ExecutionTime = 3 s  ClockTime = 3 s

Time = 0.12

Courant Number mean: 0.225399 max: 0.963286
smoothSolver:  Solving for Ux, Initial residual = 2.16643e-05, Final residual = 9.91602e-06, No Iterations 6
smoothSolver:  Solving for Uy, Initial residual = 5.02537e-05, Final residual = 9.20873e-06, No Iterations 13
DICPCG:  Solving for p, Initial residual = 0.00029872, Final residual = 1.38477e-05, No Iterations 84
time step continuity errors : sum local = 7.89885e-09, global = 1.15152e-19, cumulative = 2.45267e-18
DICPCG:  Solving for p, Initial residual = 0.000294319, Final residual = 9.75828e-07, No Iterations 100
time step continuity errors : sum local = 5.56457e-10, global = -2.30905e-19, cumulative = 2.22176e-18
ExecutionTime = 3.03 s  ClockTime = 3 s

Time = 0.12125

Courant Number mean: 0.22541 max: 0.963287
smoothSolver:  Solving for Ux, Initial residual = 1.9996e-05, Final residual = 9.12892e-06, No Iterations 6
smoothSolver:  Solving for Uy, Initial residual = 4.96888e-05, Final residual = 9.1286e-06, No Iterations 13
DICPCG:  Solving for p, Initial residual = 0.000263606, Final residual = 1.01232e-05, No Iterations 87
time step continuity errors : sum local = 5.77136e-09, global = 3.17398e-19, cumulative = 2.53916e-18
DICPCG:  Solving for p, Initial residual = 0.000260078, Final residual = 7.1814e-07, No Iterations 100
time step continuity errors : sum local = 4.0917e-10, global = -2.08999e-19, cumulative = 2.33016e-18
ExecutionTime = 3.05 s  ClockTime = 3 s

Time = 0.1225

Courant Number mean: 0.225421 max: 0.963288
smoothSolver:  Solving for Ux, Initial residual = 1.93858e-05, Final residual = 8.85146e-06, No Iterations 6
smoothSolver:  Solving for Uy, Initial residual = 4.67854e-05, Final residual = 9.77658e-06, No Iterations 12
DICPCG:  Solving for p, Initial residual = 0.00021838, Final residual = 9.19457e-06, No Iterations 43
time step continuity errors : sum local = 6.31744e-09, global = 2.03709e-21, cumulative = 2.3322e-18
DICPCG:  Solving for p, Initial residual = 0.00021856, Final residual = 9.73577e-07, No Iterations 99
time step continuity errors : sum local = 5.54406e-10, global = -1.86143e-19, cumulative = 2.14605e-18
ExecutionTime = 3.07 s  ClockTime = 3 s

Time = 0.12375

Courant Number mean: 0.225431 max: 0.96329
smoothSolver:  Solving for Ux, Initial residual = 1.96403e-05, Final residual = 8.9456e-06, No Iterations 6
smoothSolver:  Solving for Uy, Initial residual = 4.39382e-05, Final residual = 9.02575e-06, No Iterations 12
DICPCG:  Solving for p, Initial residual = 0.000240302, Final residual = 1.04519e-05, No Iterations 86
time step continuity errors : sum local = 5.959e-09, global = 1.27357e-19, cumulative = 2.27341e-18
DICPCG:  Solving for p, Initial residual = 0.000236683, Final residual = 8.77807e-07, No Iterations 97
time step continuity errors : sum local = 5.00791e-10, global = 1.17038e-19, cumulative = 2.39045e-18
ExecutionTime = 3.09 s  ClockTime = 3 s

Time = 0.125

Courant Number mean: 0.225441 max: 0.963291
smoothSolver:  Solving for Ux, Initial residual = 1.75703e-05, Final residual = 9.10202e-06, No Iterations 5
smoothSolver:  Solving for Uy, Initial residual = 4.40709e-05, Final residual = 9.17594e-06, No Iterations 12
DICPCG:  Solving for p, Initial residual = 0.000254542, Final residual = 1.22993e-05, No Iterations 72
time step continuity errors : sum local = 7.00568e-09, global = -9.0015e-20, cumulative = 2.30043e-18
DICPCG:  Solving for p, Initial residual = 0.000250992, Final residual = 9.60409e-07, No Iterations 98
time step continuity errors : sum local = 5.46675e-10, global = -1.64745e-20, cumulative = 2.28396e-18
ExecutionTime = 3.13 s  ClockTime = 3 s

Time = 0.12625

Courant Number mean: 0.22545 max: 0.963292
smoothSolver:  Solving for Ux, Initial residual = 1.74117e-05, Final residual = 8.97372e-06, No Iterations 5
smoothSolver:  Solving for Uy, Initial residual = 4.103e-05, Final residual = 9.67891e-06, No Iterations 11
DICPCG:  Solving for p, Initial residual = 0.000225, Final residual = 1.11074e-05, No Iterations 43
time step continuity errors : sum local = 7.60992e-09, global = 2.4854e-19, cumulative = 2.5325e-18
DICPCG:  Solving for p, Initial residual = 0.000225662, Final residual = 9.98023e-07, No Iterations 98
time step continuity errors : sum local = 5.68756e-10, global = 7.8905e-20, cumulative = 2.6114e-18
ExecutionTime = 3.15 s  ClockTime = 3 s

Time = 0.1275

Courant Number mean: 0.225458 max: 0.963292
smoothSolver:  Solving for Ux, Initial residual = 1.80396e-05, Final residual = 9.27435e-06, No Iterations 5
smoothSolver:  Solving for Uy, Initial residual = 3.84905e-05, Final residual = 8.89542e-06, No Iterations 11
DICPCG:  Solving for p, Initial residual = 0.000246852, Final residual = 9.69717e-06, No Iterations 86
time step continuity errors : sum local = 5.52569e-09, global = 3.50881e-19, cumulative = 2.96229e-18
DICPCG:  Solving for p, Initial residual = 0.000242598, Final residual = 8.59593e-07, No Iterations 98
time step continuity errors : sum local = 4.9e-10, global = -3.82844e-20, cumulative = 2.924e-18
ExecutionTime = 3.18 s  ClockTime = 4 s

Time = 0.12875

Courant Number mean: 0.225466 max: 0.963293
smoothSolver:  Solving for Ux, Initial residual = 1.58056e-05, Final residual = 9.24872e-06, No Iterations 4
smoothSolver:  Solving for Uy, Initial residual = 3.90733e-05, Final residual = 9.17381e-06, No Iterations 11
DICPCG:  Solving for p, Initial residual = 0.000256974, Final residual = 1.17576e-05, No Iterations 72
time step continuity errors : sum local = 6.70185e-09, global = -3.15574e-19, cumulative = 2.60843e-18
DICPCG:  Solving for p, Initial residual = 0.000253733, Final residual = 9.13619e-07, No Iterations 99
time step continuity errors : sum local = 5.20777e-10, global = -1.20955e-19, cumulative = 2.48747e-18
ExecutionTime = 3.2 s  ClockTime = 4 s

Time = 0.13

Courant Number mean: 0.225473 max: 0.963294
smoothSolver:  Solving for Ux, Initial residual = 1.57874e-05, Final residual = 9.18856e-06, No Iterations 4
smoothSolver:  Solving for Uy, Initial residual = 3.63507e-05, Final residual = 9.66445e-06, No Iterations 10
DICPCG:  Solving for p, Initial residual = 0.000226176, Final residual = 1.10447e-05, No Iterations 72
time step continuity errors : sum local = 6.36161e-09, global = -2.13447e-19, cumulative = 2.27402e-18
DICPCG:  Solving for p, Initial residual = 0.000224711, Final residual = 9.13235e-07, No Iterations 94
time step continuity errors : sum local = 5.20582e-10, global = 4.90796e-20, cumulative = 2.3231e-18
ExecutionTime = 3.22 s  ClockTime = 4 s

Time = 0.13125

Courant Number mean: 0.22548 max: 0.963295
smoothSolver:  Solving for Ux, Initial residual = 1.5131e-05, Final residual = 8.86121e-06, No Iterations 4
smoothSolver:  Solving for Uy, Initial residual = 3.49075e-05, Final residual = 9.33566e-06, No Iterations 10
DICPCG:  Solving for p, Initial residual = 0.000225987, Final residual = 9.88147e-06, No Iterations 73
time step continuity errors : sum local = 5.65512e-09, global = -3.589e-19, cumulative = 1.9642e-18
DICPCG:  Solving for p, Initial residual = 0.000222756, Final residual = 7.04358e-07, No Iterations 83
time step continuity errors : sum local = 4.04513e-10, global = -1.94932e-19, cumulative = 1.76927e-18
ExecutionTime = 3.24 s  ClockTime = 4 s

Time = 0.1325

Courant Number mean: 0.225487 max: 0.963296
smoothSolver:  Solving for Ux, Initial residual = 1.44216e-05, Final residual = 9.57868e-06, No Iterations 3
smoothSolver:  Solving for Uy, Initial residual = 3.3957e-05, Final residual = 9.09823e-06, No Iterations 10
DICPCG:  Solving for p, Initial residual = 0.000260826, Final residual = 1.30128e-05, No Iterations 37
time step continuity errors : sum local = 9.35054e-09, global = -7.71478e-20, cumulative = 1.69212e-18
DICPCG:  Solving for p, Initial residual = 0.000263598, Final residual = 9.0311e-07, No Iterations 93
time step continuity errors : sum local = 5.14972e-10, global = 1.01052e-20, cumulative = 1.70223e-18
ExecutionTime = 3.26 s  ClockTime = 4 s

Time = 0.13375

Courant Number mean: 0.225493 max: 0.963297
smoothSolver:  Solving for Ux, Initial residual = 1.67407e-05, Final residual = 9.61226e-06, No Iterations 4
smoothSolver:  Solving for Uy, Initial residual = 3.17618e-05, Final residual = 9.186e-06, No Iterations 9
DICPCG:  Solving for p, Initial residual = 0.000241068, Final residual = 1.04306e-05, No Iterations 88
time step continuity errors : sum local = 5.94134e-09, global = -2.73354e-19, cumulative = 1.42887e-18
DICPCG:  Solving for p, Initial residual = 0.000234522, Final residual = 8.66147e-07, No Iterations 102
time step continuity errors : sum local = 4.93597e-10, global = -9.93011e-20, cumulative = 1.32957e-18
ExecutionTime = 3.28 s  ClockTime = 4 s

Time = 0.135

Courant Number mean: 0.225499 max: 0.963297
smoothSolver:  Solving for Ux, Initial residual = 1.34494e-05, Final residual = 8.86391e-06, No Iterations 3
smoothSolver:  Solving for Uy, Initial residual = 3.32724e-05, Final residual = 9.93527e-06, No Iterations 9
DICPCG:  Solving for p, Initial residual = 0.000232114, Final residual = 9.692e-06, No Iterations 73
time step continuity errors : sum local = 5.52098e-09, global = -9.33312e-20, cumulative = 1.23624e-18
DICPCG:  Solving for p, Initial residual = 0.000228232, Final residual = 9.37913e-07, No Iterations 100
time step continuity errors : sum local = 5.34611e-10, global = -1.11827e-19, cumulative = 1.12441e-18
ExecutionTime = 3.3 s  ClockTime = 4 s

Time = 0.13625

Courant Number mean: 0.225504 max: 0.963298
smoothSolver:  Solving for Ux, Initial residual = 1.351e-05, Final residual = 8.88995e-06, No Iterations 3
smoothSolver:  Solving for Uy, Initial residual = 3.03168e-05, Final residual = 9.09985e-06, No Iterations 9
DICPCG:  Solving for p, Initial residual = 0.000219146, Final residual = 1.01742e-05, No Iterations 73
[...]
time step continuity errors : sum local = 6.25428e-10, global = -4.93051e-20, cumulative = 7.72327e-18
DICPCG:  Solving for p, Initial residual = 1.07576e-06, Final residual = 8.35614e-07, No Iterations 1
time step continuity errors : sum local = 5.40675e-10, global = 1.28974e-20, cumulative = 7.73617e-18
ExecutionTime = 5.63 s  ClockTime = 6 s

Time = 0.4675

Courant Number mean: 0.225635 max: 0.963309
smoothSolver:  Solving for Ux, Initial residual = 2.08907e-06, Final residual = 2.08907e-06, No Iterations 0
smoothSolver:  Solving for Uy, Initial residual = 5.45837e-06, Final residual = 5.45837e-06, No Iterations 0
DICPCG:  Solving for p, Initial residual = 1.08544e-06, Final residual = 8.2476e-07, No Iterations 1
time step continuity errors : sum local = 5.34458e-10, global = -4.2759e-19, cumulative = 7.30857e-18
DICPCG:  Solving for p, Initial residual = 9.67263e-07, Final residual = 9.67263e-07, No Iterations 0
time step continuity errors : sum local = 6.15599e-10, global = -3.12115e-21, cumulative = 7.30545e-18
ExecutionTime = 5.63 s  ClockTime = 6 s

Time = 0.46875

Courant Number mean: 0.225635 max: 0.963309
smoothSolver:  Solving for Ux, Initial residual = 2.07976e-06, Final residual = 2.07976e-06, No Iterations 0
smoothSolver:  Solving for Uy, Initial residual = 5.4365e-06, Final residual = 5.4365e-06, No Iterations 0
DICPCG:  Solving for p, Initial residual = 1.08184e-06, Final residual = 8.36475e-07, No Iterations 1
time step continuity errors : sum local = 5.41134e-10, global = 4.52297e-20, cumulative = 7.35068e-18
DICPCG:  Solving for p, Initial residual = 1.07515e-06, Final residual = 8.24523e-07, No Iterations 1
time step continuity errors : sum local = 5.34316e-10, global = -1.50718e-19, cumulative = 7.19997e-18
ExecutionTime = 5.64 s  ClockTime = 6 s

Time = 0.47

Courant Number mean: 0.225635 max: 0.963309
smoothSolver:  Solving for Ux, Initial residual = 2.06926e-06, Final residual = 2.06926e-06, No Iterations 0
smoothSolver:  Solving for Uy, Initial residual = 5.41644e-06, Final residual = 5.41644e-06, No Iterations 0
DICPCG:  Solving for p, Initial residual = 9.77403e-07, Final residual = 9.77403e-07, No Iterations 0
time step continuity errors : sum local = 6.21366e-10, global = 3.00968e-19, cumulative = 7.50093e-18
DICPCG:  Solving for p, Initial residual = 1.07263e-06, Final residual = 8.20099e-07, No Iterations 1
time step continuity errors : sum local = 5.31827e-10, global = -1.9659e-19, cumulative = 7.30434e-18
ExecutionTime = 5.64 s  ClockTime = 6 s

Time = 0.47125

Courant Number mean: 0.225635 max: 0.963309
smoothSolver:  Solving for Ux, Initial residual = 2.06115e-06, Final residual = 2.06115e-06, No Iterations 0
smoothSolver:  Solving for Uy, Initial residual = 5.39887e-06, Final residual = 5.39887e-06, No Iterations 0
DICPCG:  Solving for p, Initial residual = 1.08756e-06, Final residual = 7.93062e-07, No Iterations 1
time step continuity errors : sum local = 5.16447e-10, global = -1.59373e-19, cumulative = 7.14497e-18
DICPCG:  Solving for p, Initial residual = 9.44498e-07, Final residual = 9.44498e-07, No Iterations 0
time step continuity errors : sum local = 6.02674e-10, global = 1.50539e-19, cumulative = 7.29551e-18
ExecutionTime = 5.64 s  ClockTime = 6 s

Time = 0.4725

Courant Number mean: 0.225635 max: 0.963309
smoothSolver:  Solving for Ux, Initial residual = 2.05211e-06, Final residual = 2.05211e-06, No Iterations 0
smoothSolver:  Solving for Uy, Initial residual = 5.37814e-06, Final residual = 5.37814e-06, No Iterations 0
DICPCG:  Solving for p, Initial residual = 1.05868e-06, Final residual = 7.83387e-07, No Iterations 1
time step continuity errors : sum local = 5.10992e-10, global = -1.82571e-19, cumulative = 7.11294e-18
DICPCG:  Solving for p, Initial residual = 1.02271e-06, Final residual = 7.67894e-07, No Iterations 1
time step continuity errors : sum local = 5.02209e-10, global = 1.05895e-19, cumulative = 7.21883e-18
ExecutionTime = 5.64 s  ClockTime = 6 s

Time = 0.47375

Courant Number mean: 0.225635 max: 0.963309
smoothSolver:  Solving for Ux, Initial residual = 2.04191e-06, Final residual = 2.04191e-06, No Iterations 0
smoothSolver:  Solving for Uy, Initial residual = 5.35917e-06, Final residual = 5.35917e-06, No Iterations 0
DICPCG:  Solving for p, Initial residual = 9.12962e-07, Final residual = 9.12962e-07, No Iterations 0
time step continuity errors : sum local = 5.84811e-10, global = 6.03042e-20, cumulative = 7.27914e-18
DICPCG:  Solving for p, Initial residual = 9.99989e-07, Final residual = 9.99989e-07, No Iterations 0
time step continuity errors : sum local = 6.34364e-10, global = 1.7013e-19, cumulative = 7.44927e-18
ExecutionTime = 5.65 s  ClockTime = 6 s

Time = 0.475

Courant Number mean: 0.225635 max: 0.963309
smoothSolver:  Solving for Ux, Initial residual = 2.03531e-06, Final residual = 2.03531e-06, No Iterations 0
smoothSolver:  Solving for Uy, Initial residual = 5.34092e-06, Final residual = 5.34092e-06, No Iterations 0
DICPCG:  Solving for p, Initial residual = 1.06264e-06, Final residual = 7.36051e-07, No Iterations 1
time step continuity errors : sum local = 4.8416e-10, global = -1.00649e-19, cumulative = 7.34862e-18
DICPCG:  Solving for p, Initial residual = 1.01152e-06, Final residual = 7.35176e-07, No Iterations 1
time step continuity errors : sum local = 4.83724e-10, global = -6.40635e-20, cumulative = 7.28455e-18
ExecutionTime = 5.66 s  ClockTime = 6 s

Time = 0.47625

Courant Number mean: 0.225635 max: 0.963309
smoothSolver:  Solving for Ux, Initial residual = 2.02521e-06, Final residual = 2.02521e-06, No Iterations 0
smoothSolver:  Solving for Uy, Initial residual = 5.32199e-06, Final residual = 5.32199e-06, No Iterations 0
DICPCG:  Solving for p, Initial residual = 8.69134e-07, Final residual = 8.69134e-07, No Iterations 0
time step continuity errors : sum local = 5.59999e-10, global = 3.18742e-20, cumulative = 7.31643e-18
DICPCG:  Solving for p, Initial residual = 9.51788e-07, Final residual = 9.51788e-07, No Iterations 0
time step continuity errors : sum local = 6.07063e-10, global = -2.49934e-19, cumulative = 7.0665e-18
ExecutionTime = 5.67 s  ClockTime = 6 s

Time = 0.4775

Courant Number mean: 0.225636 max: 0.963309
smoothSolver:  Solving for Ux, Initial residual = 2.01876e-06, Final residual = 2.01876e-06, No Iterations 0
smoothSolver:  Solving for Uy, Initial residual = 5.30419e-06, Final residual = 5.30419e-06, No Iterations 0
DICPCG:  Solving for p, Initial residual = 1.01413e-06, Final residual = 7.50063e-07, No Iterations 1
time step continuity errors : sum local = 4.92303e-10, global = -2.20758e-19, cumulative = 6.84574e-18
DICPCG:  Solving for p, Initial residual = 1.03871e-06, Final residual = 7.30457e-07, No Iterations 1
time step continuity errors : sum local = 4.81223e-10, global = 1.17536e-19, cumulative = 6.96327e-18
ExecutionTime = 5.67 s  ClockTime = 6 s

Time = 0.47875

Courant Number mean: 0.225636 max: 0.963309
smoothSolver:  Solving for Ux, Initial residual = 2.00871e-06, Final residual = 2.00871e-06, No Iterations 0
smoothSolver:  Solving for Uy, Initial residual = 5.28529e-06, Final residual = 5.28529e-06, No Iterations 0
DICPCG:  Solving for p, Initial residual = 8.84193e-07, Final residual = 8.84193e-07, No Iterations 0
time step continuity errors : sum local = 5.6876e-10, global = 1.4563e-19, cumulative = 7.1089e-18
DICPCG:  Solving for p, Initial residual = 9.81067e-07, Final residual = 9.81067e-07, No Iterations 0
time step continuity errors : sum local = 6.2392e-10, global = 6.57187e-20, cumulative = 7.17462e-18
ExecutionTime = 5.67 s  ClockTime = 6 s

Time = 0.48

Courant Number mean: 0.225636 max: 0.963309
smoothSolver:  Solving for Ux, Initial residual = 2.00228e-06, Final residual = 2.00228e-06, No Iterations 0
smoothSolver:  Solving for Uy, Initial residual = 5.26756e-06, Final residual = 5.26756e-06, No Iterations 0
DICPCG:  Solving for p, Initial residual = 1.05541e-06, Final residual = 7.85072e-07, No Iterations 1
time step continuity errors : sum local = 5.12442e-10, global = -3.54161e-20, cumulative = 7.13921e-18
DICPCG:  Solving for p, Initial residual = 1.10027e-06, Final residual = 7.71602e-07, No Iterations 1
time step continuity errors : sum local = 5.04873e-10, global = -4.7396e-20, cumulative = 7.09181e-18
ExecutionTime = 5.68 s  ClockTime = 6 s

Time = 0.48125

Courant Number mean: 0.225636 max: 0.963309
smoothSolver:  Solving for Ux, Initial residual = 1.99224e-06, Final residual = 1.99224e-06, No Iterations 0
smoothSolver:  Solving for Uy, Initial residual = 5.24851e-06, Final residual = 5.24851e-06, No Iterations 0
DICPCG:  Solving for p, Initial residual = 9.4606e-07, Final residual = 9.4606e-07, No Iterations 0
time step continuity errors : sum local = 6.0421e-10, global = -1.20192e-19, cumulative = 6.97162e-18
DICPCG:  Solving for p, Initial residual = 1.05762e-06, Final residual = 8.27959e-07, No Iterations 1
time step continuity errors : sum local = 5.37084e-10, global = -1.72427e-19, cumulative = 6.79919e-18
ExecutionTime = 5.68 s  ClockTime = 6 s

Time = 0.4825

Courant Number mean: 0.225636 max: 0.963309
smoothSolver:  Solving for Ux, Initial residual = 1.98427e-06, Final residual = 1.98427e-06, No Iterations 0
smoothSolver:  Solving for Uy, Initial residual = 5.23138e-06, Final residual = 5.23138e-06, No Iterations 0
DICPCG:  Solving for p, Initial residual = 1.14953e-06, Final residual = 7.93823e-07, No Iterations 1
time step continuity errors : sum local = 5.1776e-10, global = -2.21583e-19, cumulative = 6.57761e-18
DICPCG:  Solving for p, Initial residual = 9.87624e-07, Final residual = 9.87624e-07, No Iterations 0
time step continuity errors : sum local = 6.28111e-10, global = -7.79579e-20, cumulative = 6.49965e-18
ExecutionTime = 5.68 s  ClockTime = 6 s

Time = 0.48375

Courant Number mean: 0.225636 max: 0.963309
smoothSolver:  Solving for Ux, Initial residual = 1.97591e-06, Final residual = 1.97591e-06, No Iterations 0
smoothSolver:  Solving for Uy, Initial residual = 5.21175e-06, Final residual = 5.21175e-06, No Iterations 0
DICPCG:  Solving for p, Initial residual = 1.13974e-06, Final residual = 8.38117e-07, No Iterations 1
time step continuity errors : sum local = 5.43111e-10, global = -3.40474e-19, cumulative = 6.15918e-18
DICPCG:  Solving for p, Initial residual = 1.13942e-06, Final residual = 8.43512e-07, No Iterations 1
time step continuity errors : sum local = 5.46302e-10, global = -5.63903e-20, cumulative = 6.10279e-18
ExecutionTime = 5.68 s  ClockTime = 6 s

Time = 0.485

Courant Number mean: 0.225636 max: 0.963309
smoothSolver:  Solving for Ux, Initial residual = 1.96627e-06, Final residual = 1.96627e-06, No Iterations 0
smoothSolver:  Solving for Uy, Initial residual = 5.19324e-06, Final residual = 5.19324e-06, No Iterations 0
DICPCG:  Solving for p, Initial residual = 1.04389e-06, Final residual = 8.8696e-07, No Iterations 1
time step continuity errors : sum local = 5.7116e-10, global = -6.97284e-20, cumulative = 6.03306e-18
DICPCG:  Solving for p, Initial residual = 1.12823e-06, Final residual = 8.29299e-07, No Iterations 1
time step continuity errors : sum local = 5.3846e-10, global = 1.28029e-19, cumulative = 6.16109e-18
ExecutionTime = 5.69 s  ClockTime = 6 s

Time = 0.48625

Courant Number mean: 0.225636 max: 0.963309
smoothSolver:  Solving for Ux, Initial residual = 1.95676e-06, Final residual = 1.95676e-06, No Iterations 0
smoothSolver:  Solving for Uy, Initial residual = 5.17502e-06, Final residual = 5.17502e-06, No Iterations 0
DICPCG:  Solving for p, Initial residual = 1.04645e-06, Final residual = 8.49667e-07, No Iterations 1
time step continuity errors : sum local = 5.50186e-10, global = 5.38879e-20, cumulative = 6.21497e-18
DICPCG:  Solving for p, Initial residual = 1.05871e-06, Final residual = 8.18172e-07, No Iterations 1
time step continuity errors : sum local = 5.32393e-10, global = -6.01758e-21, cumulative = 6.20896e-18
ExecutionTime = 5.69 s  ClockTime = 6 s

Time = 0.4875

Courant Number mean: 0.225636 max: 0.963309
smoothSolver:  Solving for Ux, Initial residual = 1.94757e-06, Final residual = 1.94757e-06, No Iterations 0
smoothSolver:  Solving for Uy, Initial residual = 5.15701e-06, Final residual = 5.15701e-06, No Iterations 0
DICPCG:  Solving for p, Initial residual = 1.02649e-06, Final residual = 8.09094e-07, No Iterations 1
time step continuity errors : sum local = 5.27363e-10, global = 6.44666e-20, cumulative = 6.27342e-18
DICPCG:  Solving for p, Initial residual = 1.00589e-06, Final residual = 7.90793e-07, No Iterations 1
time step continuity errors : sum local = 5.17092e-10, global = -2.61635e-20, cumulative = 6.24726e-18
ExecutionTime = 5.69 s  ClockTime = 6 s

Time = 0.48875

Courant Number mean: 0.225637 max: 0.963309
smoothSolver:  Solving for Ux, Initial residual = 1.9388e-06, Final residual = 1.9388e-06, No Iterations 0
smoothSolver:  Solving for Uy, Initial residual = 5.13943e-06, Final residual = 5.13943e-06, No Iterations 0
DICPCG:  Solving for p, Initial residual = 9.87393e-07, Final residual = 9.87393e-07, No Iterations 0
time step continuity errors : sum local = 6.29048e-10, global = 9.11204e-20, cumulative = 6.33838e-18
DICPCG:  Solving for p, Initial residual = 1.11136e-06, Final residual = 7.43925e-07, No Iterations 1
time step continuity errors : sum local = 4.90584e-10, global = -2.16409e-19, cumulative = 6.12197e-18
ExecutionTime = 5.7 s  ClockTime = 6 s

Time = 0.49

Courant Number mean: 0.225637 max: 0.963309
smoothSolver:  Solving for Ux, Initial residual = 1.93187e-06, Final residual = 1.93187e-06, No Iterations 0
smoothSolver:  Solving for Uy, Initial residual = 5.12312e-06, Final residual = 5.12312e-06, No Iterations 0
DICPCG:  Solving for p, Initial residual = 1.03409e-06, Final residual = 7.6745e-07, No Iterations 1
time step continuity errors : sum local = 5.04139e-10, global = -1.41215e-20, cumulative = 6.10785e-18
DICPCG:  Solving for p, Initial residual = 9.34419e-07, Final residual = 9.34419e-07, No Iterations 0
time step continuity errors : sum local = 5.99217e-10, global = 4.05905e-19, cumulative = 6.51375e-18
ExecutionTime = 5.7 s  ClockTime = 6 s

Time = 0.49125

Courant Number mean: 0.225637 max: 0.963309
smoothSolver:  Solving for Ux, Initial residual = 1.9243e-06, Final residual = 1.9243e-06, No Iterations 0
smoothSolver:  Solving for Uy, Initial residual = 5.10448e-06, Final residual = 5.10448e-06, No Iterations 0
DICPCG:  Solving for p, Initial residual = 1.06534e-06, Final residual = 7.75565e-07, No Iterations 1
time step continuity errors : sum local = 5.08945e-10, global = 1.03106e-19, cumulative = 6.61686e-18
DICPCG:  Solving for p, Initial residual = 1.06042e-06, Final residual = 7.80222e-07, No Iterations 1
time step continuity errors : sum local = 5.11777e-10, global = 2.09037e-19, cumulative = 6.8259e-18
ExecutionTime = 5.7 s  ClockTime = 6 s

Time = 0.4925

Courant Number mean: 0.225637 max: 0.963309
smoothSolver:  Solving for Ux, Initial residual = 1.91628e-06, Final residual = 1.91628e-06, No Iterations 0
smoothSolver:  Solving for Uy, Initial residual = 5.08707e-06, Final residual = 5.08707e-06, No Iterations 0
DICPCG:  Solving for p, Initial residual = 9.66859e-07, Final residual = 9.66859e-07, No Iterations 0
time step continuity errors : sum local = 6.18051e-10, global = 1.16481e-20, cumulative = 6.83755e-18
DICPCG:  Solving for p, Initial residual = 1.08469e-06, Final residual = 8.04182e-07, No Iterations 1
time step continuity errors : sum local = 5.25619e-10, global = -2.66671e-19, cumulative = 6.57087e-18
ExecutionTime = 5.71 s  ClockTime = 6 s

Time = 0.49375

Courant Number mean: 0.225637 max: 0.963309
smoothSolver:  Solving for Ux, Initial residual = 1.90944e-06, Final residual = 1.90944e-06, No Iterations 0
smoothSolver:  Solving for Uy, Initial residual = 5.07062e-06, Final residual = 5.07062e-06, No Iterations 0
DICPCG:  Solving for p, Initial residual = 1.1341e-06, Final residual = 7.93855e-07, No Iterations 1
time step continuity errors : sum local = 5.19934e-10, global = 1.58717e-20, cumulative = 6.58675e-18
DICPCG:  Solving for p, Initial residual = 9.95523e-07, Final residual = 9.95523e-07, No Iterations 0
time step continuity errors : sum local = 6.34767e-10, global = 6.01173e-20, cumulative = 6.64686e-18
ExecutionTime = 5.71 s  ClockTime = 6 s

Time = 0.495

Courant Number mean: 0.225637 max: 0.96331
smoothSolver:  Solving for Ux, Initial residual = 1.9022e-06, Final residual = 1.9022e-06, No Iterations 0
smoothSolver:  Solving for Uy, Initial residual = 5.05179e-06, Final residual = 5.05179e-06, No Iterations 0
DICPCG:  Solving for p, Initial residual = 1.14924e-06, Final residual = 8.30721e-07, No Iterations 1
time step continuity errors : sum local = 5.41136e-10, global = -6.12254e-20, cumulative = 6.58564e-18
DICPCG:  Solving for p, Initial residual = 1.15202e-06, Final residual = 8.39414e-07, No Iterations 1
time step continuity errors : sum local = 5.46291e-10, global = -1.09119e-19, cumulative = 6.47652e-18
ExecutionTime = 5.71 s  ClockTime = 6 s

Time = 0.49625

Courant Number mean: 0.225637 max: 0.96331
smoothSolver:  Solving for Ux, Initial residual = 1.89429e-06, Final residual = 1.89429e-06, No Iterations 0
smoothSolver:  Solving for Uy, Initial residual = 5.0328e-06, Final residual = 5.0328e-06, No Iterations 0
DICPCG:  Solving for p, Initial residual = 1.05652e-06, Final residual = 8.95073e-07, No Iterations 1
time step continuity errors : sum local = 5.78175e-10, global = -1.10279e-19, cumulative = 6.36624e-18
DICPCG:  Solving for p, Initial residual = 1.16016e-06, Final residual = 8.35571e-07, No Iterations 1
time step continuity errors : sum local = 5.44505e-10, global = -1.38641e-19, cumulative = 6.2276e-18
ExecutionTime = 5.72 s  ClockTime = 6 s

Time = 0.4975

Courant Number mean: 0.225637 max: 0.96331
smoothSolver:  Solving for Ux, Initial residual = 1.88643e-06, Final residual = 1.88643e-06, No Iterations 0
smoothSolver:  Solving for Uy, Initial residual = 5.01329e-06, Final residual = 5.01329e-06, No Iterations 0
DICPCG:  Solving for p, Initial residual = 1.08528e-06, Final residual = 8.68937e-07, No Iterations 1
time step continuity errors : sum local = 5.63699e-10, global = -1.80659e-19, cumulative = 6.04694e-18
DICPCG:  Solving for p, Initial residual = 1.10974e-06, Final residual = 8.43284e-07, No Iterations 1
time step continuity errors : sum local = 5.49296e-10, global = 1.01589e-19, cumulative = 6.14853e-18
ExecutionTime = 5.72 s  ClockTime = 6 s

Time = 0.49875

Courant Number mean: 0.225637 max: 0.96331
smoothSolver:  Solving for Ux, Initial residual = 1.87872e-06, Final residual = 1.87872e-06, No Iterations 0
smoothSolver:  Solving for Uy, Initial residual = 4.99331e-06, Final residual = 4.99331e-06, No Iterations 0
DICPCG:  Solving for p, Initial residual = 1.08979e-06, Final residual = 8.41801e-07, No Iterations 1
time step continuity errors : sum local = 5.48638e-10, global = 2.23048e-19, cumulative = 6.37158e-18
DICPCG:  Solving for p, Initial residual = 1.07426e-06, Final residual = 8.29655e-07, No Iterations 1
time step continuity errors : sum local = 5.4191e-10, global = -3.75172e-20, cumulative = 6.33406e-18
ExecutionTime = 5.72 s  ClockTime = 6 s

Time = 0.5

Courant Number mean: 0.225637 max: 0.96331
smoothSolver:  Solving for Ux, Initial residual = 1.87121e-06, Final residual = 1.87121e-06, No Iterations 0
smoothSolver:  Solving for Uy, Initial residual = 4.97316e-06, Final residual = 4.97316e-06, No Iterations 0
DICPCG:  Solving for p, Initial residual = 1.06328e-06, Final residual = 8.15307e-07, No Iterations 1
time step continuity errors : sum local = 5.33911e-10, global = 1.89134e-19, cumulative = 6.52319e-18
DICPCG:  Solving for p, Initial residual = 1.03948e-06, Final residual = 8.00009e-07, No Iterations 1
time step continuity errors : sum local = 5.25367e-10, global = 2.00983e-19, cumulative = 6.72418e-18
ExecutionTime = 5.74 s  ClockTime = 6 s

End

